data_str_m12_o4_o4_f0_bcu.sym.69
_audit_creation_date              2012-12-11T17:07:56-0500
_audit_creation_method            fapswitch 2.2
_symmetry_space_group_name_H-M    P1
_symmetry_Int_Tables_number       1
_space_group_crystal_system       triclinic
_cell_length_a                    17.24381
_cell_length_b                    17.24599
_cell_length_c                    17.174274
_cell_angle_alpha                 90.147474
_cell_angle_beta                  90.003184
_cell_angle_gamma                 90.000655
_cell_volume                      5107.38159345

loop_
_atom_site_label
_atom_site_type_symbol
_atom_type_description
_atom_site_fract_x
_atom_site_fract_y
_atom_site_fract_z
_atom_type_partial_charge
C1    C     C_R   0.427191 0.335408 0.852676 -0.145441
C2    C     C_R   0.164575 0.927155 0.352832 -0.146414
C3    C     C_R   0.683434 0.774656 0.345223 -0.173071
C4    C     C_R   0.224593 0.316702 0.655638 -0.175425
C5    C     C_R   0.226996 0.863030 0.798897 -0.181268
C6    C     C_R   0.775938 0.684792 0.657253 -0.171451
C7    C     C_R   0.773633 0.135357 0.800307 -0.180985
C8    C     C_R   0.724566 0.183306 0.844325 -0.175428
C9    C     C_R   0.727026 0.636988 0.701150 -0.181259
C10   C     C_R   0.275917 0.815224 0.842790 -0.171436
C11   C     C_R   0.273669 0.364657 0.699648 -0.181039
C12   C     C_R   0.635419 0.725428 0.301365 -0.183843
C13   C     C_R   0.104774 0.196695 0.394750 -0.132372
C14   C     C_R   0.815918 0.276435 0.157347 -0.174426
C15   C     C_R   0.363638 0.272313 0.298438 -0.180674
C16   C     C_R   0.183465 0.725339 0.154801 -0.173002
C17   C     C_R   0.990150 0.318128 0.798056 0.194855
C18   C     C_R   0.035389 0.382435 0.776749 -0.171983
C19   C     C_R   0.106130 0.397266 0.813652 -0.125174
C20   C     C_R   0.133635 0.347069 0.870893 -0.068086
C21   C     C_R   0.090597 0.281828 0.891255 -0.137153
C22   C     C_R   0.019419 0.267045 0.855214 -0.155573
C23   C     C_R   0.694962 0.901752 0.782930 0.186966
C24   C     C_R   0.835067 0.073097 0.352965 -0.145975
C25   C     C_R   0.652243 0.952027 0.831630 -0.204565
C26   C     C_R   0.685959 0.986078 0.897333 -0.113374
C27   C     C_R   0.763876 0.972894 0.914206 -0.087207
C28   C     C_R   0.807510 0.924060 0.866533 -0.157239
C29   C     C_R   0.773195 0.887391 0.802446 -0.128189
C30   C     C_R   0.011148 0.681314 0.796940 0.192036
C31   C     C_R   0.972520 0.609527 0.793422 -0.162920
C32   C     C_R   0.901241 0.598975 0.830752 -0.129318
C33   C     C_R   0.867389 0.659869 0.872066 -0.060111
C34   C     C_R   0.904331 0.731652 0.875513 -0.132002
C35   C     C_R   0.927184 0.164605 0.647319 -0.145427
C36   C     C_R   0.975141 0.742935 0.837516 -0.164807
C37   C     C_R   0.305654 0.101954 0.778294 0.183473
C38   C     C_R   0.345369 0.044891 0.821154 -0.206918
C39   C     C_R   0.314078 0.014652 0.889730 -0.114350
C40   C     C_R   0.240847 0.038134 0.914767 -0.082342
C41   C     C_R   0.199856 0.093564 0.872480 -0.149156
C42   C     C_R   0.232387 0.126552 0.805701 -0.114861
C43   C     C_R   0.897212 0.696695 0.217218 0.184807
C44   C     C_R   0.951716 0.657059 0.170709 -0.211553
C45   C     C_R   0.981818 0.690569 0.103143 -0.111982
C46   C     C_R   0.196765 0.104852 0.605385 -0.129478
C47   C     C_R   0.960057 0.765446 0.082074 -0.080850
C48   C     C_R   0.906827 0.806138 0.127600 -0.149405
C49   C     C_R   0.874407 0.771795 0.193744 -0.115751
C50   C     C_R   0.681996 0.010570 0.202244 0.194581
C51   C     C_R   0.618398 0.964172 0.223311 -0.170293
C52   C     C_R   0.604876 0.893224 0.186149 -0.122974
C53   C     C_R   0.655587 0.866706 0.128727 -0.067043
C54   C     C_R   0.719979 0.911011 0.108342 -0.138045
C55   C     C_R   0.733518 0.982345 0.144718 -0.157534
C56   C     C_R   0.099598 0.305430 0.220423 0.184372
C57   C     C_R   0.073229 0.834804 0.646702 -0.147806
C58   C     C_R   0.045602 0.346906 0.175183 -0.205178
C59   C     C_R   0.012820 0.314318 0.108272 -0.113185
C60   C     C_R   0.030490 0.238233 0.087317 -0.087023
C61   C     C_R   0.082882 0.195629 0.131826 -0.153679
C62   C     C_R   0.118631 0.229261 0.196783 -0.120626
C63   C     C_R   0.319091 0.989012 0.203252 0.191366
C64   C     C_R   0.389134 0.029483 0.213638 -0.161269
C65   C     C_R   0.401794 0.100464 0.176538 -0.128846
C66   C     C_R   0.344554 0.132399 0.129097 -0.063437
C67   C     C_R   0.274235 0.093864 0.119199 -0.133487
C68   C     C_R   0.803277 0.895371 0.605290 -0.136445
C69   C     C_R   0.260957 0.023123 0.156448 -0.161207
C70   C     C_R   0.397278 0.803264 0.282879 0.184810
C71   C     C_R   0.451653 0.842954 0.329510 -0.211501
C72   C     C_R   0.481814 0.809383 0.397021 -0.111874
C73   C     C_R   0.460238 0.734407 0.417924 -0.080976
C74   C     C_R   0.407129 0.693672 0.372289 -0.149516
C75   C     C_R   0.374652 0.728064 0.306195 -0.115865
C76   C     C_R   0.181993 0.489400 0.297749 0.194439
C77   C     C_R   0.118317 0.535779 0.276892 -0.169919
C78   C     C_R   0.104908 0.606736 0.314075 -0.122993
C79   C     C_3   0.911648 0.306057 0.758925 -0.258094
C80   C     C_R   0.155796 0.633276 0.371324 -0.066937
C81   C     C_R   0.220251 0.588985 0.391516 -0.137938
C82   C     C_R   0.233689 0.517652 0.355103 -0.157671
C83   C     C_R   0.599703 0.194561 0.279434 0.184239
C84   C     C_R   0.545517 0.153168 0.324511 -0.205192
C85   C     C_R   0.512832 0.185697 0.391497 -0.113160
C86   C     C_R   0.530786 0.261657 0.412673 -0.087019
C87   C     C_R   0.583377 0.304180 0.368325 -0.153394
C88   C     C_R   0.619028 0.270592 0.303296 -0.120170
C89   C     C_R   0.819061 0.510953 0.296796 0.191379
C90   C     C_3   0.653131 0.862942 0.714080 -0.267469
C91   C     C_R   0.888849 0.470214 0.285806 -0.161358
C92   C     C_R   0.901605 0.399244 0.322895 -0.128712
C93   C     C_R   0.844684 0.367563 0.370885 -0.063665
C94   C     C_R   0.774592 0.406352 0.381368 -0.133626
C95   C     C_R   0.761239 0.477112 0.344183 -0.160908
C96   C     C_R   0.490148 0.181873 0.701974 0.194779
C97   C     C_R   0.535314 0.117473 0.723149 -0.171755
C98   C     C_R   0.606066 0.102672 0.686261 -0.125257
C99   C     C_R   0.633649 0.152984 0.629165 -0.068003
C100  C     C_R   0.590685 0.218314 0.608938 -0.137057
C101  C     C_3   0.089078 0.691458 0.755851 -0.263225
C102  C     C_R   0.519503 0.233074 0.644971 -0.155634
C103  C     C_R   0.195013 0.598286 0.717024 0.186932
C104  C     C_R   0.152308 0.548006 0.668310 -0.204696
C105  C     C_R   0.186033 0.513982 0.602603 -0.113298
C106  C     C_R   0.263944 0.527205 0.585736 -0.087160
C107  C     C_R   0.307561 0.576051 0.633418 -0.157179
C108  C     C_R   0.273237 0.612690 0.697512 -0.128010
C109  C     C_R   0.511124 0.818636 0.702997 0.192040
C110  C     C_R   0.472352 0.890332 0.706733 -0.162914
C111  C     C_R   0.401070 0.900870 0.669401 -0.129261
C112  C     C_R   0.696765 0.395147 0.894624 -0.129493
C113  C     C_3   0.348231 0.139827 0.709901 -0.261624
C114  C     C_R   0.367351 0.840046 0.627868 -0.060087
C115  C     C_R   0.404437 0.768349 0.624197 -0.132058
C116  C     C_R   0.475257 0.757082 0.662187 -0.164755
C117  C     C_R   0.805694 0.398112 0.721781 0.183464
C118  C     C_R   0.845454 0.455155 0.678940 -0.206781
C119  C     C_R   0.814166 0.485464 0.610391 -0.114330
C120  C     C_R   0.740888 0.462093 0.585381 -0.082589
C121  C     C_R   0.699859 0.406680 0.627647 -0.149257
C122  C     C_R   0.732389 0.373607 0.694386 -0.114911
C123  C     C_3   0.861211 0.653420 0.286410 -0.264853
C124  C     C_3   0.693074 0.089016 0.242136 -0.258637
C125  C     C_3   0.138631 0.347646 0.288747 -0.262477
C126  C     C_3   0.307335 0.911006 0.243548 -0.261727
C127  C     C_3   0.361269 0.846537 0.213681 -0.265010
C128  C     C_3   0.193008 0.410973 0.257786 -0.258715
C129  C     C_3   0.638715 0.152322 0.211129 -0.262367
C130  C     C_3   0.807271 0.588968 0.256529 -0.261578
C131  C     C_3   0.411649 0.193945 0.741106 -0.258121
C132  C     C_R   0.573231 0.665200 0.853299 -0.147759
C133  C     C_3   0.153168 0.637060 0.785879 -0.267491
C134  C     C_3   0.589055 0.808529 0.744107 -0.263163
C135  C     C_3   0.848248 0.360176 0.790153 -0.261578
C136  C     C_R   0.393683 0.696545 0.894862 -0.141737
C137  C     C_R   0.331805 0.422509 0.853822 -0.142004
C138  C     C_R   0.606467 0.303233 0.894952 -0.142839
C139  C     C_R   0.668760 0.578028 0.854220 -0.139433
C140  C     C_R   0.422200 0.331386 0.145721 -0.141422
C141  C     C_R   0.303272 0.606430 0.105085 -0.141488
C142  C     C_R   0.577538 0.668293 0.146282 -0.140058
C143  C     C_R   0.303276 0.604631 0.894710 -0.136426
C144  C     C_R   0.696685 0.393655 0.104985 -0.143291
C145  C     C_R   0.922212 0.168602 0.354269 -0.141449
C146  C     C_R   0.803268 0.893567 0.394913 -0.141506
C147  C     C_R   0.077553 0.831694 0.353726 -0.139970
C148  C     C_R   0.196678 0.106341 0.395007 -0.143266
C149  C     C_R   0.893682 0.803457 0.605138 -0.141760
C150  C     C_R   0.831801 0.077496 0.646169 -0.142042
C151  C     C_R   0.106468 0.196766 0.605055 -0.142792
C152  C     C_R   0.168759 0.921975 0.645787 -0.139376
C153  C     C_R   0.367750 0.365707 0.808697 0.078056
C154  C     C_R   0.395168 0.696781 0.105374 -0.131418
C155  C     C_R   0.682771 0.318661 0.876084 0.063041
C156  C     C_R   0.632878 0.635143 0.809577 0.077258
C157  C     C_R   0.317515 0.680787 0.875942 0.057846
C158  C     C_R   0.318774 0.682735 0.123922 0.060329
C159  C     C_R   0.634308 0.632259 0.191250 0.077450
C160  C     C_R   0.681122 0.317474 0.123875 0.060498
C161  C     C_R   0.365208 0.367186 0.190643 0.078626
C162  C     C_R   0.818764 0.817261 0.376074 0.060444
C163  C     C_R   0.134334 0.867725 0.308770 0.077392
C164  C     C_R   0.181103 0.182516 0.376112 0.060353
C165  C     C_R   0.664555 0.572832 0.147184 -0.146316
C166  C     C_R   0.865224 0.132804 0.309336 0.078590
C167  C     C_R   0.867739 0.134306 0.691293 0.078053
C168  C     C_R   0.182773 0.181338 0.623928 0.063062
C169  C     C_R   0.132875 0.864862 0.690430 0.077213
C170  C     C_R   0.817515 0.819218 0.624060 0.057851
C171  C     C_R   0.813339 0.288165 0.824876 0.079894
C172  C     C_R   0.635863 0.741510 0.711980 0.070425
C173  C     C_R   0.188850 0.709367 0.819802 0.087421
C174  C     C_R   0.365921 0.261109 0.708312 0.062012
C175  C     C_R   0.740135 0.634702 0.289843 0.067491
C176  C     C_R   0.604782 0.303303 0.105247 -0.132153
C177  C     C_R   0.710909 0.187833 0.177151 0.080807
C178  C     C_R   0.260059 0.364598 0.289886 0.062757
C179  C     C_R   0.289294 0.812359 0.177707 0.084465
C180  C     C_R   0.240196 0.865266 0.210229 0.067766
C181  C     C_R   0.210832 0.312102 0.322694 0.080962
C182  C     C_R   0.760136 0.135347 0.210002 0.062639
C183  C     C_R   0.789242 0.687600 0.322387 0.084260
C184  C     C_R   0.313344 0.211832 0.675134 0.079962
C185  C     C_R   0.135857 0.758486 0.788018 0.070517
C186  C     C_R   0.688844 0.790635 0.680189 0.087379
C187  C     C_R   0.335058 0.426897 0.147022 -0.145996
C188  C     C_R   0.865910 0.238888 0.791694 0.061955
C189  C     C_R   0.741027 0.263110 0.850859 0.019344
C190  C     C_R   0.660387 0.668018 0.736657 0.020397
C191  C     C_R   0.260015 0.735276 0.848159 0.021975
C192  C     C_R   0.340648 0.333840 0.734692 0.026968
C193  C     C_R   0.666667 0.659232 0.265005 0.024122
C194  C     C_R   0.736220 0.259751 0.150481 0.020972
C195  C     C_R   0.332900 0.339495 0.263881 0.026414
C196  C     C_R   0.263597 0.740894 0.149880 0.019592
C197  C     C_R   0.166713 0.840747 0.235035 0.023928
C198  C     C_R   0.895163 0.803219 0.394621 -0.131320
C199  C     C_R   0.236168 0.240218 0.349431 0.021073
C200  C     C_R   0.832950 0.160479 0.236063 0.026528
C201  C     C_R   0.763565 0.759089 0.350165 0.019574
C202  C     C_R   0.241037 0.236891 0.649137 0.019317
C203  C     C_R   0.160373 0.831989 0.763359 0.020390
C204  C     C_R   0.760019 0.764732 0.651852 0.021982
C205  C     C_R   0.840627 0.166169 0.765291 0.027019
C206  C     C_R   0.135457 0.774561 0.198663 -0.183812
C207  C     C_R   0.315872 0.223551 0.342601 -0.174307
C208  C     C_R   0.863685 0.227672 0.201519 -0.180601
H1    H     H_    0.471964 0.297088 0.833072 0.108997
H2    H     H_    0.202966 0.971817 0.333369 0.108592
H3    H     H_    0.434314 0.006077 0.249936 0.095371
H4    H     H_    0.456131 0.130699 0.184206 0.100573
H5    H     H_    0.354609 0.186934 0.099843 0.110098
H6    H     H_    0.230160 0.118736 0.082115 0.111476
H7    H     H_    0.205335 0.995390 0.147912 0.109401
H8    H     H_    0.469866 0.900807 0.314685 0.106904
H9    H     H_    0.522749 0.841236 0.432597 0.112524
H10   H     H_    0.484555 0.707942 0.469525 0.106650
H11   H     H_    0.390355 0.635543 0.388748 0.109664
H12   H     H_    0.331090 0.695530 0.275535 0.130985
H13   H     H_    0.077073 0.252574 0.399892 0.087780
H14   H     H_    0.078964 0.517304 0.231756 0.091781
H15   H     H_    0.054984 0.641230 0.298608 0.101082
H16   H     H_    0.145398 0.688120 0.400152 0.111177
H17   H     H_    0.259600 0.609853 0.435898 0.116356
H18   H     H_    0.284238 0.484952 0.372626 0.107526
H19   H     H_    0.529347 0.094886 0.308724 0.108202
H20   H     H_    0.472324 0.152467 0.426101 0.111132
H21   H     H_    0.503881 0.287586 0.463366 0.103783
H22   H     H_    0.597246 0.363100 0.384997 0.107442
H23   H     H_    0.662199 0.304467 0.273760 0.130777
H24   H     H_    0.796435 0.028541 0.333427 0.108795
H25   H     H_    0.933745 0.493383 0.249005 0.095216
H26   H     H_    0.955765 0.368812 0.314776 0.100715
H27   H     H_    0.854807 0.313024 0.400109 0.110117
H28   H     H_    0.730751 0.381667 0.418856 0.111431
H29   H     H_    0.705807 0.505059 0.353230 0.109310
H30   H     H_    0.515885 0.078606 0.768226 0.093602
H31   H     H_    0.639552 0.052116 0.701827 0.102576
H32   H     H_    0.688258 0.141487 0.600455 0.110508
H33   H     H_    0.612407 0.257248 0.564757 0.113969
H34   H     H_    0.487724 0.284174 0.627388 0.107121
H35   H     H_    0.971951 0.202936 0.666921 0.108991
H36   H     H_    0.092137 0.535962 0.680004 0.106121
H37   H     H_    0.152003 0.476268 0.565479 0.112505
H38   H     H_    0.290569 0.499418 0.535889 0.104250
H39   H     H_    0.368082 0.586107 0.620216 0.108591
H40   H     H_    0.308538 0.652564 0.729938 0.131200
H41   H     H_    0.497425 0.938596 0.737599 0.096871
H42   H     H_    0.372113 0.956391 0.672188 0.098557
H43   H     H_    0.312607 0.848435 0.598302 0.110591
H44   H     H_    0.378339 0.721614 0.591385 0.113799
H45   H     H_    0.501749 0.700303 0.659014 0.110283
H46   H     H_    0.252621 0.077159 0.600012 0.086724
H47   H     H_    0.901776 0.475085 0.697521 0.109805
H48   H     H_    0.846306 0.528039 0.577318 0.111149
H49   H     H_    0.715971 0.486827 0.533209 0.106165
H50   H     H_    0.643160 0.388399 0.607881 0.108335
H51   H     H_    0.700247 0.327986 0.722240 0.130868
H52   H     H_    0.028909 0.795891 0.665907 0.107940
H53   H     H_    0.747398 0.923080 0.600333 0.089374
H54   H     H_    0.915278 0.307700 0.694462 0.141228
H55   H     H_    0.633226 0.904540 0.668977 0.129202
H56   H     H_    0.083908 0.689365 0.691520 0.141119
H57   H     H_    0.752621 0.422843 0.899996 0.086717
H58   H     H_    0.368753 0.098042 0.665044 0.126904
H59   H     H_    0.904292 0.633691 0.330255 0.130012
H60   H     H_    0.691264 0.085094 0.306572 0.140621
H61   H     H_    0.097381 0.368356 0.333970 0.127879
H62   H     H_    0.308866 0.915793 0.307937 0.141885
H63   H     H_    0.404352 0.866249 0.169835 0.129992
H64   H     H_    0.191195 0.414947 0.193355 0.140592
H65   H     H_    0.597467 0.131600 0.165907 0.127751
H66   H     H_    0.808788 0.584204 0.192139 0.141858
H67   H     H_    0.415293 0.192312 0.805569 0.141254
H68   H     H_    0.528910 0.704112 0.834090 0.107948
H69   H     H_    0.133280 0.595439 0.830965 0.129197
H70   H     H_    0.583879 0.810636 0.808436 0.141085
H71   H     H_    0.868784 0.401923 0.835041 0.126849
H72   H     H_    0.420959 0.752877 0.898148 0.087794
H73   H     H_    0.283758 0.459048 0.837512 0.093999
H74   H     H_    0.579324 0.246881 0.898748 0.087777
H75   H     H_    0.717290 0.541928 0.838051 0.095416
H76   H     H_    0.458507 0.283044 0.161685 0.094682
H77   H     H_    0.246908 0.579234 0.101510 0.087878
H78   H     H_    0.541132 0.716466 0.162788 0.093720
H79   H     H_    0.247397 0.576924 0.899670 0.089371
H80   H     H_    0.753015 0.420884 0.101393 0.087698
H81   H     H_    0.958534 0.216929 0.338299 0.094612
H82   H     H_    0.746904 0.920761 0.398498 0.087889
H83   H     H_    0.041152 0.783515 0.337220 0.093719
H84   H     H_    0.253007 0.079109 0.398584 0.087709
H85   H     H_    0.920955 0.747125 0.601852 0.087797
H86   H     H_    0.783752 0.040956 0.662472 0.094011
H87   H     H_    0.079327 0.253118 0.601259 0.087776
H88   H     H_    0.217288 0.958076 0.661965 0.095374
H89   H     H_    0.077171 0.756011 0.211568 0.146286
H90   H     H_    0.422793 0.752664 0.100119 0.088123
H91   H     H_    0.339809 0.169585 0.363480 0.123225
H92   H     H_    0.921122 0.247469 0.216220 0.149818
H93   H     H_    0.659180 0.828061 0.367509 0.122333
H94   H     H_    0.170561 0.340614 0.634749 0.124628
H95   H     H_    0.246083 0.920923 0.785326 0.149754
H96   H     H_    0.829358 0.660550 0.635140 0.121405
H97   H     H_    0.754161 0.077676 0.786011 0.148323
H98   H     H_    0.670526 0.159397 0.865192 0.124645
H99   H     H_    0.746130 0.579109 0.714749 0.149837
H100  H     H_    0.329327 0.839472 0.864929 0.121387
H101  H     H_    0.702925 0.528157 0.166667 0.108624
H102  H     H_    0.254218 0.422351 0.713916 0.148286
H103  H     H_    0.577135 0.743981 0.288450 0.146272
H104  H     H_    0.839846 0.330420 0.136503 0.123313
H105  H     H_    0.421083 0.252532 0.283760 0.149897
H106  H     H_    0.159202 0.671947 0.132489 0.122267
H107  H     H_    0.016022 0.421208 0.731557 0.093600
H108  H     H_    0.139666 0.447758 0.797988 0.102577
H109  H     H_    0.188238 0.358588 0.899611 0.110510
H110  H     H_    0.112257 0.242985 0.935549 0.114108
H111  H     H_    0.987572 0.216028 0.872915 0.107093
H112  H     H_    0.577081 0.247424 0.100091 0.087692
H113  H     H_    0.592073 0.964053 0.819930 0.106085
H114  H     H_    0.651915 0.023784 0.934448 0.112484
H115  H     H_    0.790493 0.000703 0.964047 0.104222
H116  H     H_    0.868037 0.914036 0.879738 0.108592
H117  H     H_    0.808512 0.847529 0.770030 0.131185
H118  H     H_    0.997711 0.561205 0.762744 0.097009
H119  H     H_    0.872392 0.543391 0.828139 0.098573
H120  H     H_    0.812654 0.651469 0.901638 0.110568
H121  H     H_    0.878128 0.778440 0.908158 0.113787
H122  H     H_    0.001524 0.799776 0.840500 0.110314
H123  H     H_    0.296416 0.471445 0.166553 0.108781
H124  H     H_    0.401664 0.024896 0.802570 0.109741
H125  H     H_    0.346185 0.972058 0.922815 0.111172
H126  H     H_    0.215939 0.013480 0.966980 0.106296
H127  H     H_    0.143192 0.111926 0.892263 0.108384
H128  H     H_    0.200278 0.172189 0.777830 0.130872
H129  H     H_    0.970077 0.599290 0.185681 0.106919
H130  H     H_    0.022848 0.658749 0.067654 0.112486
H131  H     H_    0.984322 0.791865 0.030427 0.106710
H132  H     H_    0.889906 0.864188 0.111008 0.109669
H133  H     H_    0.830739 0.804273 0.224315 0.130982
H134  H     H_    0.922786 0.747336 0.399882 0.088092
H135  H     H_    0.579199 0.982636 0.268594 0.091818
H136  H     H_    0.555003 0.858720 0.201765 0.101131
H137  H     H_    0.645105 0.811873 0.099914 0.111149
H138  H     H_    0.759192 0.890154 0.063835 0.116407
H139  H     H_    0.783994 0.015074 0.127027 0.107464
H140  H     H_    0.029639 0.405286 0.190793 0.108045
H141  H     H_    0.972449 0.347605 0.073556 0.111163
H142  H     H_    0.003506 0.212266 0.036683 0.103774
H143  H     H_    0.096509 0.136602 0.115341 0.107450
H144  H     H_    0.161630 0.195290 0.226455 0.130780
N1    N     N_R   0.425360 0.368540 0.922560 -0.042255
N2    N     N_R   0.131460 0.925360 0.422560 -0.042080
N3    N     N_R   0.074640 0.131460 0.422560 -0.035913
N4    N     N_R   0.868540 0.074640 0.422560 -0.042317
N5    N     N_R   0.925360 0.131460 0.577440 -0.042258
N6    N     N_R   0.131460 0.074640 0.577440 -0.036460
N7    N     N_R   0.074640 0.868540 0.577440 -0.041882
N8    N     N_R   0.868540 0.925360 0.577440 -0.035540
N9    N     N_R   0.425340 0.631500 0.922560 -0.037720
N10   N     N_R   0.368500 0.425340 0.922560 -0.042196
N11   N     N_R   0.574660 0.368500 0.922560 -0.038004
N12   N     N_R   0.631460 0.425360 0.922560 -0.036456
N13   N     N_R   0.631500 0.574660 0.922560 -0.042488
N14   N     N_R   0.425340 0.368500 0.077440 -0.042254
N15   N     N_R   0.368500 0.574660 0.077440 -0.037704
N16   N     N_R   0.574660 0.631500 0.077440 -0.042346
N17   N     N_R   0.631500 0.425340 0.077440 -0.037876
N18   N     N_R   0.925340 0.131500 0.422560 -0.042243
N19   N     N_R   0.868500 0.925340 0.422560 -0.037712
N20   N     N_R   0.074660 0.868500 0.422560 -0.042348
N21   N     N_R   0.131500 0.074660 0.422560 -0.037871
N22   N     N_R   0.925340 0.868500 0.577440 -0.037723
N23   N     N_R   0.574640 0.631460 0.922560 -0.041891
N24   N     N_R   0.868500 0.074660 0.577440 -0.042189
N25   N     N_R   0.074660 0.131500 0.577440 -0.037999
N26   N     N_R   0.131500 0.925340 0.577440 -0.042490
N27   N     N_R   0.368540 0.574640 0.922560 -0.035543
N28   N     N_R   0.425360 0.631460 0.077440 -0.036070
N29   N     N_R   0.631460 0.574640 0.077440 -0.042096
N30   N     N_R   0.574640 0.368540 0.077440 -0.035937
N31   N     N_R   0.368540 0.425360 0.077440 -0.042319
N32   N     N_R   0.925360 0.868540 0.422560 -0.036089
Ni1   Ni    Ni4+2 0.500000 0.369720 0.000000 0.206858
Ni2   Ni    Ni4+2 0.630280 0.500000 0.000000 0.206724
Ni3   Ni    Ni4+2 0.500000 0.630280 0.000000 0.207019
Ni4   Ni    Ni4+2 0.369720 0.500000 0.000000 0.206942
Ni5   Ni    Ni4+2 1.000000 0.869720 0.500000 0.207015
Ni6   Ni    Ni4+2 0.130280 0.000000 0.500000 0.206727
Ni7   Ni    Ni4+2 0.000000 0.130280 0.500000 0.206867
Ni8   Ni    Ni4+2 0.869720 0.000000 0.500000 0.206947

loop_
_geom_bond_atom_site_label_1
_geom_bond_atom_site_label_2
_ccdc_geom_bond_type
C13   N3    A    
C126  C127  S    
C96   C102  A    
C19   C20   A    
C114  C115  A    
C147  H83   S    
C36   H122  S    
C151  H87   S    
C167  C205  S    
C152  H88   S    
C154  C158  A    
C14   C208  A    
C90   C134  S    
C113  C184  S    
C106  C107  A    
C177  C182  A    
C132  H68   S    
C133  H69   S    
C11   C192  A    
C41   C42   A    
C37   C42   A    
C110  C111  A    
C123  C183  S    
C155  C189  S    
C68   N8    A    
C35   N5    A    
C112  C155  A    
N18   Ni7   S    
C61   H143  S    
C126  C180  S    
C144  C160  A    
C170  C204  S    
C121  H50   S    
C144  N17   A    
C140  N14   A    
C83   C88   A    
C14   C194  A    
C59   C60   A    
C200  C208  A    
C21   C22   A    
C150  N24   A    
C197  C206  A    
N21   Ni6   S    
C104  C105  A    
C145  C166  A    
C45   C47   A    
C110  H41   S    
C188  C205  A    
C12   H103  S    
C51   C52   A    
C150  H86   S    
C27   H115  S    
C74   C75   A    
C174  C184  A    
C98   H31   S    
C90   C186  S    
C172  C190  A    
C1    H1    S    
C173  C191  A    
N28   Ni3   S    
N24   Ni8   S    
C43   C44   A    
C157  C191  S    
C42   H128  S    
C37   C38   A    
C62   H144  S    
N2    N20   A    
C45   H130  S    
C165  H101  S    
C137  C153  A    
C85   H20   S    
C99   H32   S    
C56   C62   A    
C208  H92   S    
C117  C135  S    
C91   C92   A    
N13   N23   A    
C175  C183  A    
C162  C198  A    
C55   H139  S    
C33   H120  S    
C86   H21   S    
C126  H62   S    
C72   C73   A    
C101  C133  S    
N2    Ni6   S    
C10   C191  A    
C30   C36   A    
C66   H5    S    
N1    Ni1   S    
C64   C65   A    
C114  H43   S    
C168  C202  S    
C57   N7    A    
C118  H47   S    
C122  H51   S    
C25   H113  S    
C20   C21   A    
C98   C99   A    
C1    N1    A    
C79   H54   S    
N7    N26   A    
C133  C173  S    
C175  C193  A    
C71   H8    S    
C146  N19   A    
C35   H35   S    
N11   Ni1   S    
C119  H48   S    
C6    C9    A    
C97   C98   A    
C7    C8    A    
N9    Ni3   S    
C85   C86   A    
N10   Ni4   S    
C82   H18   S    
C173  C185  A    
C147  N20   A    
C23   C29   A    
C83   C129  S    
C38   C39   A    
C40   H126  S    
N19   Ni8   S    
C115  C116  A    
N9    N27   A    
C95   H29   S    
N31   Ni4   S    
N29   Ni2   S    
C63   C69   A    
C107  C108  A    
C102  H34   S    
C19   H108  S    
C89   C91   A    
C29   H117  S    
C164  C199  S    
N14   N31   A    
C136  N9    A    
C66   C67   A    
C127  H63   S    
C142  N16   A    
C128  H64   S    
C140  H76   S    
C101  C185  S    
C141  H77   S    
C79   C188  S    
C187  N31   A    
C148  C164  A    
C50   C124  S    
C2    N2    A    
C76   C82   A    
C39   C40   A    
N20   Ni5   S    
C59   H141  S    
C25   C26   A    
C158  C196  S    
C159  C165  A    
C26   H114  S    
C14   H104  S    
C117  C122  A    
N6    Ni6   S    
C132  N23   A    
C46   N6    A    
C141  C158  A    
C83   C84   A    
C17   C18   A    
C4    H94   S    
N25   Ni7   S    
C5    H95   S    
C105  H37   S    
N16   N29   A    
N22   Ni5   S    
C6    H96   S    
C96   C131  S    
C39   H125  S    
C148  N21   A    
C123  C130  S    
C130  H66   S    
N1    N10   A    
C51   H135  S    
C181  C199  A    
C73   C74   A    
C43   C123  S    
C120  C121  A    
C159  C193  S    
C54   C55   A    
C112  N12   A    
C13   H13   S    
C5    C203  A    
C149  N22   A    
C130  C175  S    
C91   H25   S    
C131  C174  S    
C127  C179  S    
N7    Ni5   S    
C71   C72   A    
C70   C127  S    
C147  C163  A    
C117  C118  A    
C15   H105  S    
C132  C156  A    
C56   C58   A    
C73   H10   S    
C34   C36   A    
N16   Ni3   S    
C61   C62   A    
C63   C64   A    
C49   H133  S    
N15   Ni4   S    
C7    H97   S    
C44   H129  S    
C101  H56   S    
N13   Ni2   S    
C67   H6    S    
C84   H19   S    
C112  H57   S    
C206  H89   S    
C15   C207  A    
C48   H132  S    
C174  C192  A    
C138  C155  A    
C87   C88   A    
C143  H79   S    
N27   Ni4   S    
C144  H80   S    
C12   C193  A    
C129  H65   S    
C142  C159  A    
C7    C205  A    
C16   H106  S    
C77   C78   A    
C52   C53   A    
C111  H42   S    
C146  C162  A    
C26   C27   A    
C46   C168  A    
C171  C188  A    
C135  H71   S    
C28   C29   A    
C136  H72   S    
C53   H137  S    
C30   C31   A    
C37   C113  S    
C176  N30   A    
C120  H49   S    
C148  H84   S    
C8    H98   S    
C149  H85   S    
C161  C195  S    
C18   C19   A    
C207  H91   S    
C113  H58   S    
N26   Ni6   S    
C65   H4    S    
C109  C116  A    
C24   N4    A    
C68   C170  A    
C41   H127  S    
N11   N12   A    
C70   C71   A    
C135  C171  S    
C139  N13   A    
N12   Ni2   S    
C116  H45   S    
C15   C195  A    
C137  N10   A    
C137  H73   S    
C151  N25   A    
C179  C196  A    
C176  H112  S    
N17   Ni2   S    
C34   H121  S    
C125  C181  S    
C134  H70   S    
C182  C200  A    
C84   C85   A    
C141  N15   A    
C199  C207  A    
C177  C194  A    
C86   C87   A    
N17   N30   A    
N30   Ni1   S    
C58   C59   A    
C53   C54   A    
C129  C177  S    
N19   N32   A    
C60   C61   A    
C183  C201  A    
C89   C95   A    
C24   C166  A    
C6    C204  A    
C16   C196  A    
C80   H16   S    
C4    C202  A    
C8    C189  A    
C138  H74   S    
C50   C51   A    
C23   C90   S    
C56   C125  S    
C4    C11   A    
C1    C153  A    
C138  N11   A    
C145  H81   S    
C48   C49   A    
C28   H116  S    
C165  N29   A    
C3    C201  A    
C9    C190  A    
C44   C45   A    
C13   C164  A    
N8    Ni8   S    
C109  C134  S    
C31   H118  S    
C24   H24   S    
C2    C163  A    
C119  C120  A    
C47   H131  S    
C87   H22   S    
C79   C135  S    
C105  C106  A    
N15   N28   A    
C17   C22   A    
C32   C33   A    
C185  C203  A    
C152  N26   A    
C161  C187  A    
C109  C110  A    
C152  C169  A    
C75   H12   S    
C150  C167  A    
C30   C101  S    
C92   C93   A    
C124  H60   S    
C124  C129  S    
C32   H119  S    
C78   C80   A    
C94   C95   A    
C178  C181  A    
C89   C130  S    
C179  C180  A    
C198  H134  S    
C123  H59   S    
C63   C126  S    
C52   H136  S    
C88   H23   S    
C198  N32   A    
C103  C104  A    
N32   Ni5   S    
C46   H46   S    
C100  H33   S    
C156  C190  S    
C93   C94   A    
C154  H90   S    
C69   H7    S    
C57   C169  A    
C81   C82   A    
C93   H27   S    
C124  C182  S    
C72   H9    S    
C21   H110  S    
C11   H102  S    
C81   H17   S    
C107  H39   S    
C16   C206  A    
N3    N21   A    
C151  C168  A    
C17   C79   S    
C171  C189  A    
N14   Ni1   S    
C118  C119  A    
C180  C197  A    
C172  C186  A    
C74   H11   S    
C125  C128  S    
C35   C167  A    
C64   H3    S    
C103  C108  A    
C3    C12   A    
N6    N25   A    
C78   H15   S    
C160  C176  A    
C143  N27   A    
C68   H53   S    
C143  C157  A    
N8    N22   A    
N5    Ni7   S    
C2    H2    S    
C184  C202  A    
C108  H40   S    
C162  C201  S    
C149  C170  A    
C47   C48   A    
C18   H107  S    
N4    N18   A    
C76   C77   A    
C43   C49   A    
C115  H44   S    
C140  C161  A    
C104  H36   S    
C58   H140  S    
C125  H61   S    
C67   C69   A    
C60   H142  S    
C131  H67   S    
C169  C203  S    
C77   H14   S    
N23   Ni3   S    
C99   C100  A    
C9    H99   S    
C10   H100  S    
C96   C97   A    
C100  C102  A    
C33   C34   A    
C121  C122  A    
N3    Ni7   S    
C38   H124  S    
C106  H38   S    
C90   H55   S    
C163  C197  S    
C154  N28   A    
C142  H78   S    
C136  C157  A    
C40   C41   A    
C145  N18   A    
C54   H138  S    
C128  C178  S    
C111  C114  A    
C186  C204  A    
C160  C194  S    
C20   H109  S    
C113  C131  S    
C22   H111  S    
N5    N24   A    
C31   C32   A    
C80   C81   A    
C178  C195  A    
C57   H52   S    
C50   C55   A    
C139  H75   S    
C97   H30   S    
C103  C133  S    
C5    C10   A    
C146  H82   S    
C94   H28   S    
C139  C156  A    
C76   C128  S    
C92   H26   S    
C23   C25   A    
C166  C200  S    
C187  H123  S    
C70   C75   A    
C65   C66   A    
C27   C28   A    
C134  C172  S    
C3    H93   S    
N4    Ni8   S    
C153  C192  S    
