data_str_m3_o40_o41_f0_fof.sym.115
_audit_creation_date              2012-12-10T16:37:46-0500
_audit_creation_method            fapswitch 2.2
_symmetry_space_group_name_H-M    P1
_symmetry_Int_Tables_number       1
_space_group_crystal_system       triclinic
_cell_length_a                    28.036339
_cell_length_b                    18.692462
_cell_length_c                    16.858951
_cell_angle_alpha                 90.211417
_cell_angle_beta                  60.781689
_cell_angle_gamma                 90.165056
_cell_volume                      7711.03984182

loop_
_atom_site_label
_atom_site_type_symbol
_atom_type_description
_atom_site_fract_x
_atom_site_fract_y
_atom_site_fract_z
_atom_type_partial_charge
C1    C     C_R   0.700129 0.264826 0.677307 0.916686
C2    C     C_R   0.299480 0.734945 0.322545 0.905091
C3    C     C_R   0.299694 0.265222 0.322583 0.905746
C4    C     C_R   0.700414 0.735102 0.677543 0.933988
C5    C     C_R   0.200129 0.764825 0.677307 0.916690
C6    C     C_R   0.799480 0.234946 0.322545 0.905086
C7    C     C_R   0.799694 0.765221 0.322583 0.905759
C8    C     C_R   0.200414 0.235102 0.677543 0.933987
C9    C     C_R   0.905047 0.497313 0.480718 0.071719
C10   C     C_R   0.097345 0.496044 0.508595 0.071493
C11   C     C_R   0.405046 0.997315 0.480722 0.071717
C12   C     C_R   0.597344 0.996044 0.508597 0.071494
C13   C     C_R   0.119382 0.378210 0.438020 -0.220155
C14   C     C_R   0.881225 0.613064 0.555935 -0.230647
C15   C     C_R   0.927801 0.379311 0.411009 -0.224451
C16   C     C_R   0.074173 0.612832 0.581034 -0.237258
C17   C     C_R   0.619381 0.878211 0.438021 -0.220155
C18   C     C_R   0.381225 0.113067 0.555938 -0.230645
C19   C     C_R   0.427801 0.879314 0.411012 -0.224447
C20   C     C_R   0.574173 0.112832 0.581036 -0.237256
C21   C     C_R   0.713066 0.253767 0.960428 0.013105
C22   C     C_R   0.278753 0.733419 0.044464 0.020758
C23   C     C_R   0.285241 0.256627 0.040603 0.013696
C24   C     C_R   0.719574 0.736303 0.956756 0.021159
C25   C     C_R   0.213066 0.753766 0.960429 0.013104
C26   C     C_R   0.778754 0.233421 0.044463 0.020758
C27   C     C_R   0.785244 0.756623 0.040601 0.013697
C28   C     C_R   0.219572 0.236308 0.956758 0.021158
C29   C     C_R   0.760123 0.210516 0.917606 -0.035919
C30   C     C_R   0.231333 0.775664 0.087102 -0.015837
C31   C     C_R   0.237752 0.214068 0.083806 -0.035155
C32   C     C_R   0.767335 0.778002 0.913808 -0.015034
C33   C     C_R   0.260123 0.710515 0.917606 -0.035921
C34   C     C_R   0.731334 0.275666 0.087100 -0.015836
C35   C     C_R   0.737755 0.714062 0.083803 -0.035160
C36   C     C_R   0.267332 0.278006 0.913810 -0.015033
C37   C     C_R   0.794326 0.202873 0.957957 0.102230
C38   C     C_R   0.196899 0.782752 0.047482 0.104015
C39   C     C_R   0.203526 0.206574 0.043596 0.103353
C40   C     C_R   0.801773 0.784981 0.953350 0.104938
C41   C     C_R   0.294326 0.702871 0.957957 0.102232
C42   C     C_R   0.696900 0.282753 0.047481 0.104015
C43   C     C_R   0.703529 0.706568 0.043593 0.103353
C44   C     C_R   0.301771 0.284985 0.953352 0.104938
C45   C     C_R   0.635547 0.312857 0.957830 0.103991
C46   C     C_R   0.358793 0.679994 0.044956 0.102683
C47   C     C_R   0.363609 0.314107 0.042478 0.103336
C48   C     C_R   0.639736 0.682397 0.955954 0.102337
C49   C     C_R   0.135547 0.812857 0.957830 0.103992
C50   C     C_R   0.858794 0.179996 0.044956 0.102683
C51   C     C_R   0.863611 0.814106 0.042478 0.103332
C52   C     C_R   0.139734 0.182401 0.955955 0.102337
C53   C     C_R   0.611584 0.339117 0.905479 -0.132572
C54   C     C_R   0.385561 0.658427 0.095300 -0.132238
C55   C     C_R   0.387981 0.339815 0.094587 -0.135751
C56   C     C_R   0.613630 0.659439 0.905126 -0.136412
C57   C     C_R   0.111584 0.839117 0.905479 -0.132572
C58   C     C_R   0.885561 0.158429 0.095300 -0.132239
C59   C     C_R   0.887981 0.839814 0.094587 -0.135753
C60   C     C_R   0.113629 0.159441 0.905127 -0.136414
C61   C     C_R   0.630825 0.316621 0.817236 -0.314157
C62   C     C_R   0.368024 0.684234 0.181634 -0.332475
C63   C     C_R   0.368706 0.317608 0.182845 -0.309138
C64   C     C_R   0.631604 0.684288 0.818316 -0.322722
C65   C     C_R   0.130825 0.816621 0.817236 -0.314163
C66   C     C_R   0.868024 0.184236 0.181634 -0.332477
C67   C     C_R   0.868707 0.817608 0.182845 -0.309144
C68   C     C_R   0.131603 0.184288 0.818316 -0.322724
C69   C     C_R   0.674556 0.270486 0.776572 -0.130660
C70   C     C_R   0.323092 0.728425 0.223400 -0.092038
C71   C     C_R   0.324673 0.271916 0.223536 -0.124292
C72   C     C_R   0.676457 0.728842 0.776741 -0.094562
C73   C     C_R   0.174556 0.770486 0.776572 -0.130659
C74   C     C_R   0.823093 0.228427 0.223400 -0.092036
C75   C     C_R   0.824674 0.771915 0.223536 -0.124290
C76   C     C_R   0.176456 0.228844 0.776741 -0.094564
C77   C     C_R   0.698069 0.240711 0.828428 -0.065661
C78   C     C_R   0.295987 0.753388 0.174106 -0.020289
C79   C     C_R   0.300430 0.243301 0.172020 -0.072494
C80   C     C_R   0.703115 0.754677 0.826440 -0.025540
C81   C     C_R   0.198070 0.740712 0.828428 -0.065660
C82   C     C_R   0.795988 0.253391 0.174106 -0.020291
C83   C     C_R   0.800432 0.743299 0.172018 -0.072494
C84   C     C_R   0.203114 0.254680 0.826440 -0.025540
C85   C     C_R   0.693478 0.128135 0.527317 0.886726
C86   C     C_R   0.308691 0.870138 0.464004 0.924483
C87   C     C_R   0.302953 0.127921 0.483464 0.920690
C88   C     C_R   0.701247 0.870786 0.504495 0.946118
C89   C     C_R   0.193478 0.628135 0.527317 0.886726
C90   C     C_R   0.808692 0.370138 0.464002 0.924480
C91   C     C_R   0.802955 0.627921 0.483459 0.920686
C92   C     C_R   0.201247 0.370786 0.504494 0.946115
C93   C     C_R   0.682271 0.269108 0.915468 0.009765
C94   C     C_R   0.311040 0.722135 0.088102 -0.001085
C95   C     C_R   0.316277 0.271565 0.085237 0.009838
C96   C     C_R   0.687568 0.724413 0.912847 0.001427
C97   C     C_R   0.182271 0.769108 0.915468 0.009766
C98   C     C_R   0.811041 0.222138 0.088102 -0.001089
C99   C     C_R   0.816278 0.771563 0.085235 0.009844
C100  C     C_R   0.187566 0.224417 0.912848 0.001428
C101  C     C_R   0.614351 0.327295 0.051361 -0.191214
C102  C     C_R   0.378184 0.662339 0.952424 -0.183644
C103  C     C_R   0.384997 0.327863 0.948834 -0.191074
C104  C     C_R   0.619674 0.666008 0.048834 -0.185515
C105  C     C_R   0.114351 0.827295 0.051361 -0.191216
C106  C     C_R   0.878185 0.162341 0.952424 -0.183647
C107  C     C_R   0.884998 0.827862 0.948833 -0.191076
C108  C     C_R   0.119671 0.166012 0.048835 -0.185517
C109  C     C_R   0.644967 0.314514 0.094396 -0.228960
C110  C     C_R   0.346003 0.670939 0.911301 -0.226609
C111  C     C_R   0.354125 0.315628 0.906026 -0.231247
C112  C     C_R   0.651556 0.675313 0.090448 -0.229358
C113  C     C_R   0.144967 0.814513 0.094396 -0.228960
C114  C     C_R   0.846003 0.170941 0.911301 -0.226609
C115  C     C_R   0.854128 0.815625 0.906025 -0.231246
C116  C     C_R   0.151552 0.175319 0.090451 -0.229356
C117  C     C_R   0.735775 0.182722 0.799269 0.525415
C118  C     C_R   0.255084 0.808145 0.205531 0.513346
C119  C     C_R   0.262726 0.185398 0.200676 0.521897
C120  C     C_R   0.744054 0.809415 0.794934 0.506908
C121  C     C_R   0.235774 0.682722 0.799268 0.525412
C122  C     C_R   0.755083 0.308148 0.205531 0.513331
C123  C     C_R   0.762730 0.685394 0.200672 0.521882
C124  C     C_R   0.244053 0.309418 0.794934 0.506903
C125  C     C_R   0.768839 0.172216 0.839371 -0.304241
C126  C     C_R   0.222834 0.816183 0.162922 -0.345198
C127  C     C_R   0.228981 0.175607 0.161662 -0.320554
C128  C     C_R   0.776251 0.817955 0.837628 -0.356620
C129  C     C_R   0.268838 0.672215 0.839371 -0.304246
C130  C     C_R   0.722835 0.316186 0.162920 -0.345210
C131  C     C_R   0.728986 0.675600 0.161658 -0.320560
C132  C     C_R   0.276249 0.317958 0.837629 -0.356621
C133  C     C_R   0.072901 0.101928 0.935817 0.917750
C134  C     C_R   0.927856 0.897661 0.063659 0.913389
C135  C     C_R   0.926751 0.101557 0.064562 0.916983
C136  C     C_R   0.072111 0.897568 0.936210 0.911496
C137  C     C_R   0.572901 0.601928 0.935817 0.917752
C138  C     C_R   0.427855 0.397661 0.063659 0.913387
C139  C     C_R   0.426751 0.601557 0.064561 0.916985
C140  C     C_R   0.572110 0.397568 0.936210 0.911495
C141  C     C_R   0.524547 0.111730 0.579237 0.117483
C142  C     C_R   0.476098 0.879126 0.416276 0.117118
C143  C     C_R   0.427921 0.112011 0.566138 0.113838
C144  C     C_R   0.572025 0.878412 0.430294 0.111870
C145  C     C_R   0.024547 0.611729 0.579235 0.117483
C146  C     C_R   0.976099 0.379124 0.416274 0.117119
C147  C     C_R   0.927921 0.612009 0.566136 0.113838
C148  C     C_R   0.072025 0.378411 0.430292 0.111870
C149  C     C_R   0.487137 0.168345 0.616212 -0.211535
C150  C     C_R   0.512600 0.821482 0.381627 -0.208356
C151  C     C_R   0.439128 0.168373 0.610002 -0.209823
C152  C     C_R   0.560290 0.821187 0.388422 -0.206147
C153  C     C_R   0.987136 0.668343 0.616210 -0.211538
C154  C     C_R   0.012600 0.321480 0.381626 -0.208357
C155  C     C_R   0.939127 0.668370 0.610001 -0.209824
C156  C     C_R   0.060291 0.321186 0.388421 -0.206147
C157  C     C_R   0.464414 0.054165 0.530945 0.026803
C158  C     C_R   0.535951 0.936822 0.464569 0.026112
C159  C     C_R   0.512542 0.053857 0.537957 0.025670
C160  C     C_R   0.488005 0.937246 0.457304 0.024648
C161  C     C_R   0.964414 0.554163 0.530943 0.026803
C162  C     C_R   0.035951 0.436820 0.464567 0.026112
C163  C     C_R   0.012542 0.553856 0.537955 0.025670
C164  C     C_R   0.988006 0.437244 0.457301 0.024648
C165  C     C_R   0.952482 0.496247 0.489693 -0.039918
C166  C     C_R   0.048470 0.495473 0.504107 -0.039291
C167  C     C_R   0.452482 0.996249 0.489696 -0.039917
C168  C     C_R   0.548470 0.995474 0.504110 -0.039291
C169  C     C_R   0.890873 0.437050 0.446160 0.016822
C170  C     C_R   0.112767 0.557071 0.540581 0.014922
C171  C     C_R   0.131326 0.435583 0.480329 0.005209
C172  C     C_R   0.871156 0.558077 0.507773 0.006286
C173  C     C_R   0.390872 0.937052 0.446164 0.016817
C174  C     C_R   0.612767 0.057072 0.540583 0.014921
C175  C     C_R   0.631326 0.935583 0.480330 0.005210
C176  C     C_R   0.371156 0.058079 0.507777 0.006288
C177  C     C_R   0.839284 0.436037 0.449850 -0.191141
C178  C     C_R   0.167759 0.561006 0.524752 -0.191667
C179  C     C_R   0.177847 0.436000 0.491981 -0.159110
C180  C     C_R   0.828460 0.561237 0.485086 -0.166281
C181  C     C_R   0.339282 0.936038 0.449858 -0.191125
C182  C     C_R   0.667759 0.061006 0.524753 -0.191665
C183  C     C_R   0.677846 0.936000 0.491982 -0.159111
C184  C     C_R   0.328458 0.061238 0.485095 -0.166284
C185  C     C_R   0.810823 0.499357 0.460225 0.097458
C186  C     C_R   0.201750 0.500487 0.492451 0.114758
C187  C     C_R   0.310818 0.999357 0.460240 0.097464
C188  C     C_R   0.701750 0.000487 0.492452 0.114756
H1    H     H_    0.087858 0.276025 0.361346 0.142134
H2    H     H_    0.911241 0.713130 0.638080 0.133683
H3    H     H_    0.004174 0.276510 0.349583 0.138303
H4    H     H_    0.995352 0.713104 0.648805 0.136673
H5    H     H_    0.587858 0.776027 0.361347 0.142134
H6    H     H_    0.411243 0.213132 0.638081 0.133683
H7    H     H_    0.504173 0.776512 0.349584 0.138304
H8    H     H_    0.495353 0.213106 0.648806 0.136673
H9    H     H_    0.148015 0.334709 0.406591 0.167747
H10   H     H_    0.852454 0.656163 0.588236 0.168146
H11   H     H_    0.919952 0.335099 0.377248 0.157045
H12   H     H_    0.082036 0.657236 0.614346 0.161913
H13   H     H_    0.648014 0.834710 0.406592 0.167747
H14   H     H_    0.352455 0.156167 0.588237 0.168143
H15   H     H_    0.419951 0.835102 0.377251 0.157047
H16   H     H_    0.582036 0.157236 0.614348 0.161913
H17   H     H_    0.613485 0.339033 0.777666 0.189357
H18   H     H_    0.387722 0.665584 0.219381 0.187097
H19   H     H_    0.386449 0.339583 0.222243 0.192468
H20   H     H_    0.612345 0.664644 0.780140 0.189602
H21   H     H_    0.113485 0.839033 0.777666 0.189357
H22   H     H_    0.887722 0.165585 0.219381 0.187096
H23   H     H_    0.886448 0.839584 0.222244 0.192469
H24   H     H_    0.112345 0.164644 0.780139 0.189602
H25   H     H_    0.573448 0.346817 0.094200 0.170191
H26   H     H_    0.419227 0.644312 0.907803 0.174090
H27   H     H_    0.426214 0.346361 0.905808 0.167491
H28   H     H_    0.578457 0.648147 0.092901 0.170053
H29   H     H_    0.073448 0.846817 0.094200 0.170191
H30   H     H_    0.919228 0.144313 0.907803 0.174090
H31   H     H_    0.926215 0.846360 0.905807 0.167490
H32   H     H_    0.078455 0.148151 0.092901 0.170052
H33   H     H_    0.626349 0.327877 0.165784 0.140616
H34   H     H_    0.363633 0.655169 0.840833 0.143260
H35   H     H_    0.372850 0.328358 0.834524 0.136387
H36   H     H_    0.633664 0.660407 0.161158 0.138250
H37   H     H_    0.126349 0.827875 0.165785 0.140615
H38   H     H_    0.863633 0.155171 0.840833 0.143259
H39   H     H_    0.872853 0.828355 0.834522 0.136386
H40   H     H_    0.133659 0.160415 0.161161 0.138247
H41   H     H_    0.798619 0.129647 0.812043 0.164486
H42   H     H_    0.193472 0.858803 0.185032 0.153873
H43   H     H_    0.199131 0.133008 0.188606 0.165084
H44   H     H_    0.805859 0.860444 0.815366 0.155305
H45   H     H_    0.298618 0.629645 0.812044 0.164488
H46   H     H_    0.693473 0.358806 0.185030 0.153879
H47   H     H_    0.699137 0.632999 0.188600 0.165085
H48   H     H_    0.305857 0.360447 0.815367 0.155304
O1    O     O_R   0.746490 0.236330 0.638080 -0.566764
O2    O     O_R   0.253510 0.763670 0.361920 -0.613101
O3    O     O_R   0.253510 0.236330 0.361920 -0.593034
O4    O     O_R   0.746490 0.763670 0.638080 -0.625535
O5    O     O_R   0.246490 0.736330 0.638080 -0.566765
O6    O     O_R   0.753510 0.263670 0.361920 -0.613115
O7    O     O_R   0.753510 0.736330 0.361920 -0.593036
O8    O     O_R   0.246490 0.263670 0.638080 -0.625542
O9    O     O_R   0.674170 0.186160 0.516270 -0.640053
O10   O     O_R   0.325830 0.813840 0.483730 -0.628951
O11   O     O_R   0.325830 0.186160 0.483730 -0.652728
O12   O     O_R   0.674170 0.813840 0.516270 -0.641994
O13   O     O_R   0.174170 0.686160 0.516270 -0.640051
O14   O     O_R   0.825830 0.313840 0.483730 -0.628949
O15   O     O_R   0.825830 0.686160 0.483730 -0.652727
O16   O     O_R   0.174170 0.313840 0.516270 -0.641993
O17   O     O_R   0.739960 0.127620 0.525000 -0.607790
O18   O     O_R   0.260040 0.872380 0.475000 -0.632775
O19   O     O_R   0.260040 0.127620 0.475000 -0.592245
O20   O     O_R   0.739960 0.872380 0.525000 -0.625201
O21   O     O_R   0.239960 0.627620 0.525000 -0.607788
O22   O     O_R   0.760040 0.372380 0.475000 -0.632774
O23   O     O_R   0.760040 0.627620 0.475000 -0.592249
O24   O     O_R   0.239960 0.372380 0.525000 -0.625202
O25   O     O_R   0.680700 0.294870 0.629350 -0.646964
O26   O     O_R   0.319300 0.705130 0.370650 -0.648912
O27   O     O_R   0.319300 0.294870 0.370650 -0.647427
O28   O     O_R   0.680700 0.705130 0.629350 -0.638396
O29   O     O_R   0.180700 0.794870 0.629350 -0.646966
O30   O     O_R   0.819300 0.205130 0.370650 -0.648911
O31   O     O_R   0.819300 0.794870 0.370650 -0.647429
O32   O     O_R   0.180700 0.205130 0.629350 -0.638398
O33   O     O_R   0.062020 0.072840 0.007170 -0.629657
O34   O     O_R   0.937980 0.927160 0.992830 -0.628663
O35   O     O_R   0.937980 0.072840 0.992830 -0.631200
O36   O     O_R   0.062020 0.927160 0.007170 -0.628203
O37   O     O_R   0.562020 0.572840 0.007170 -0.629659
O38   O     O_R   0.437980 0.427160 0.992830 -0.628664
O39   O     O_R   0.437980 0.572840 0.992830 -0.631201
O40   O     O_R   0.562020 0.427160 0.007170 -0.628203
O41   O     O_R   0.947860 0.073950 0.109290 -0.620294
O42   O     O_R   0.052140 0.926050 0.890710 -0.624376
O43   O     O_R   0.052140 0.073950 0.890710 -0.619560
O44   O     O_R   0.947860 0.926050 0.109290 -0.623169
O45   O     O_R   0.447860 0.573950 0.109290 -0.620294
O46   O     O_R   0.552140 0.426050 0.890710 -0.624375
O47   O     O_R   0.552140 0.573950 0.890710 -0.619560
O48   O     O_R   0.447860 0.426050 0.109290 -0.623169
Zn1   Zn    Zn3+2 0.792340 0.208750 0.507670 0.964648
Zn2   Zn    Zn3+2 0.207660 0.791250 0.492330 0.900331
Zn3   Zn    Zn3+2 0.207660 0.208750 0.492330 0.958727
Zn4   Zn    Zn3+2 0.792340 0.791250 0.507670 0.898799
Zn5   Zn    Zn3+2 0.292340 0.708750 0.507670 0.964650
Zn6   Zn    Zn3+2 0.707660 0.291250 0.492330 0.900327
Zn7   Zn    Zn3+2 0.707660 0.708750 0.492330 0.958723
Zn8   Zn    Zn3+2 0.292340 0.291250 0.507670 0.898798
Zn9   Zn    Zn3+2 0.505960 0.500000 0.080520 0.919621
Zn10  Zn    Zn3+2 0.494040 0.500000 0.919480 0.918859
Zn11  Zn    Zn3+2 0.005960 0.000000 0.080520 0.919621
Zn12  Zn    Zn3+2 0.994040 0.000000 0.919480 0.918857
N1    N     N_2   0.764920 0.500863 0.443850 -0.272573
H49   H     H_    0.769526 0.474338 0.386873 0.229366
C189  C     C_3   0.709681 0.502074 0.522144 -0.592990
H50   H     H_    0.686965 0.452225 0.527049 0.207914
H51   H     H_    0.685573 0.545544 0.513965 0.226472
H52   H     H_    0.710539 0.510284 0.586798 0.218001
N2    N     N_2   0.259855 0.506618 0.435099 -0.293270
H53   H     H_    0.272229 0.544439 0.384368 0.228136
C190  C     C_3   0.295325 0.500277 0.474958 -0.624788
H54   H     H_    0.322008 0.548173 0.458763 0.220711
H55   H     H_    0.322521 0.453302 0.445199 0.218626
H56   H     H_    0.271301 0.494732 0.549939 0.240381
N3    N     N_2   0.264909 0.000863 0.443885 -0.272554
H57   H     H_    0.269508 0.974347 0.386906 0.229356
C191  C     C_3   0.209675 0.002071 0.522191 -0.593037
H58   H     H_    0.186957 0.952223 0.527098 0.207928
H59   H     H_    0.185563 0.045545 0.514028 0.226468
H60   H     H_    0.210542 0.010276 0.586838 0.217998
N4    N     N_2   0.759855 0.006617 0.435101 -0.293269
H61   H     H_    0.772229 0.044438 0.384369 0.228137
C192  C     C_3   0.795324 0.000276 0.474961 -0.624788
H62   H     H_    0.822008 0.048173 0.458766 0.220711
H63   H     H_    0.822521 0.953302 0.445203 0.218626
H64   H     H_    0.771301 0.994732 0.549942 0.240376
O49   O     O_3   0.739846 0.132276 0.735635 -0.635281
C193  C     C_3   0.689789 0.094980 0.765670 0.060432
H65   H     H_    0.694739 0.060166 0.708582 0.174149
H66   H     H_    0.655262 0.131397 0.779894 0.118134
C194  C     C_3   0.675458 0.047712 0.848954 -0.391378
H67   H     H_    0.712129 0.018107 0.839300 0.239893
H68   H     H_    0.661232 0.081933 0.910432 0.211832
C195  C     C_3   0.630561 0.994039 0.864857 -0.882425
H69   H     H_    0.593116 0.022461 0.875598 0.251321
H70   H     H_    0.620560 0.961653 0.926132 0.266122
H71   H     H_    0.644491 0.957371 0.805639 0.283494
O50   O     O_3   0.254495 0.861792 0.264018 -0.644250
C196  C     C_3   0.200588 0.882588 0.330087 0.117936
H72   H     H_    0.198315 0.882067 0.397475 0.182934
H73   H     H_    0.168038 0.844748 0.336527 0.109950
C197  C     C_3   0.188219 0.959220 0.313273 -0.393007
H74   H     H_    0.216898 0.996811 0.319293 0.255860
H75   H     H_    0.193648 0.964706 0.243910 0.217219
C198  C     C_3   0.129980 0.980975 0.381931 -0.977665
H76   H     H_    0.100133 0.945755 0.375288 0.259846
H77   H     H_    0.122757 0.037078 0.369082 0.272875
H78   H     H_    0.123519 0.977292 0.452238 0.251838
O51   O     O_3   0.260897 0.133255 0.260398 -0.630968
C199  C     C_3   0.311417 0.096144 0.223308 0.069697
H79   H     H_    0.310350 0.062638 0.278097 0.175514
H80   H     H_    0.346960 0.132513 0.202615 0.123982
C200  C     C_3   0.320485 0.047599 0.143261 -0.392696
H81   H     H_    0.282373 0.018291 0.159633 0.239568
H82   H     H_    0.331653 0.080884 0.082139 0.214785
C201  C     C_3   0.365961 0.993488 0.121189 -0.893563
H83   H     H_    0.404838 0.021573 0.103643 0.253729
H84   H     H_    0.372044 0.960127 0.062341 0.268909
H85   H     H_    0.354867 0.957784 0.180262 0.276133
O52   O     O_3   0.744557 0.862498 0.736344 -0.630175
C202  C     C_3   0.798343 0.883981 0.670734 0.131191
H86   H     H_    0.800847 0.883189 0.603113 0.185937
H87   H     H_    0.831145 0.846869 0.664359 0.094639
C203  C     C_3   0.809685 0.960963 0.688455 -0.392792
H88   H     H_    0.780812 0.997334 0.681601 0.253494
H89   H     H_    0.803399 0.966898 0.758375 0.218766
C204  C     C_3   0.867890 0.983804 0.621010 -0.980568
H90   H     H_    0.897792 0.949513 0.628353 0.258928
H91   H     H_    0.874298 0.040223 0.634510 0.276954
H92   H     H_    0.875048 0.979685 0.550286 0.253997
O53   O     O_3   0.239844 0.632275 0.735637 -0.635282
C205  C     C_3   0.189786 0.594979 0.765677 0.060413
H93   H     H_    0.194733 0.560165 0.708590 0.174142
H94   H     H_    0.155258 0.631395 0.779910 0.118141
C206  C     C_3   0.175461 0.547707 0.848956 -0.391296
H95   H     H_    0.212133 0.518082 0.839279 0.239871
H96   H     H_    0.161256 0.581929 0.910434 0.211809
C207  C     C_3   0.130545 0.494053 0.864885 -0.882302
H97   H     H_    0.093098 0.522496 0.875642 0.251282
H98   H     H_    0.120547 0.461671 0.926164 0.266103
H99   H     H_    0.144458 0.457375 0.805668 0.283445
O54   O     O_3   0.754490 0.361794 0.264023 -0.644230
C208  C     C_3   0.700580 0.382574 0.330100 0.117964
H100  H     H_    0.698308 0.382046 0.397486 0.182944
H101  H     H_    0.668035 0.344727 0.336532 0.109958
C209  C     C_3   0.688196 0.459206 0.313309 -0.393076
H102  H     H_    0.716866 0.496804 0.319345 0.255852
H103  H     H_    0.693625 0.464701 0.243948 0.217217
C210  C     C_3   0.629951 0.480936 0.381971 -0.977695
H104  H     H_    0.600113 0.445712 0.375310 0.259860
H105  H     H_    0.622718 0.537040 0.369143 0.272873
H106  H     H_    0.623488 0.477239 0.452279 0.251833
O55   O     O_3   0.760903 0.633252 0.260395 -0.630969
C211  C     C_3   0.811423 0.596140 0.223299 0.069675
H107  H     H_    0.810366 0.562653 0.278095 0.175505
H108  H     H_    0.846971 0.632510 0.202569 0.123975
C212  C     C_3   0.820472 0.547569 0.143284 -0.392488
H109  H     H_    0.782356 0.518230 0.159710 0.239521
H110  H     H_    0.831606 0.580842 0.082153 0.214720
C213  C     C_3   0.865977 0.493485 0.121183 -0.893276
H111  H     H_    0.904869 0.521608 0.103514 0.253657
H112  H     H_    0.872016 0.460069 0.062401 0.268885
H113  H     H_    0.854938 0.457823 0.180291 0.275988
O56   O     O_3   0.244556 0.362501 0.736343 -0.630175
C214  C     C_3   0.298343 0.383979 0.670731 0.131192
H114  H     H_    0.300847 0.383185 0.603110 0.185947
H115  H     H_    0.331145 0.346866 0.664358 0.094640
C215  C     C_3   0.309690 0.460961 0.688445 -0.392814
H116  H     H_    0.280817 0.497333 0.681592 0.253490
H117  H     H_    0.303407 0.466899 0.758362 0.218760
C216  C     C_3   0.367895 0.483798 0.620992 -0.980559
H118  H     H_    0.397796 0.449506 0.628334 0.258929
H119  H     H_    0.374306 0.540217 0.634487 0.276952
H120  H     H_    0.375049 0.479677 0.550270 0.253994

loop_
_geom_bond_atom_site_label_1
_geom_bond_atom_site_label_2
_ccdc_geom_bond_type
C212  C213  S    
C193  H66   S    
C154  H3    S    
O10   Zn5   S    
C5    O29   A    
C85   C182  S    
C35   C131  A    
O34   Zn12  S    
N1    C189  S    
C9    C169  A    
C34   C42   A    
C171  C179  A    
C181  C187  A    
N2    C190  S    
C196  H72   S    
C90   O14   A    
C27   C99   A    
C116  H40   S    
C92   C179  S    
C175  C183  A    
C42   C109  A    
C11   C173  A    
C24   C96   A    
C149  H8    S    
C193  C194  S    
C8    O8    A    
O47   Zn10  S    
O44   Zn11  S    
C207  H97   S    
C30   C38   A    
C203  C204  S    
C214  H115  S    
C208  C209  S    
C101  H25   S    
O11   Zn8   S    
C183  C188  A    
C67   H23   S    
C147  C155  A    
C206  C207  S    
N3    C191  S    
C90   C177  S    
C128  H44   S    
C11   C167  A    
C82   C98   A    
C76   C84   A    
C73   C81   A    
C161  C163  A    
C162  C164  A    
O18   Zn2   S    
O7    Zn7   S    
C204  H92   S    
C131  H47   S    
C139  O45   A    
C84   C100  A    
C104  H28   S    
C57   C65   A    
C37   C114  A    
C27   C35   A    
C10   C171  A    
C21   C29   A    
C81   C121  A    
C23   C31   A    
C192  H64   S    
C24   C32   A    
C115  H39   S    
O39   Zn10  S    
C113  H37   S    
N2    H53   S    
O41   Zn11  S    
O42   Zn12  S    
O25   Zn6   S    
C19   H15   S    
C136  O36   A    
C17   H13   S    
C132  H48   S    
C107  H31   S    
C195  H70   S    
C63   C71   A    
C105  H29   S    
C36   C44   A    
O55   C211  S    
C90   O22   A    
C109  H33   S    
C12   C174  A    
C196  C197  S    
C176  C184  A    
O3    Zn3   S    
O4    Zn4   S    
C140  O46   A    
C197  H74   S    
C87   O11   A    
C133  O43   A    
C207  H99   S    
C148  C162  A    
O53   C205  S    
O30   Zn1   S    
C108  C116  A    
C2    O26   A    
C21   C93   A    
C78   C94   A    
C23   C95   A    
C201  H83   S    
O33   Zn11  S    
C213  H111  S    
O36   Zn11  S    
O5    Zn5   S    
C21   C42   A    
C22   C41   A    
C51   C107  A    
O49   C193  S    
C24   C43   A    
C203  H89   S    
C216  H118  S    
C82   C122  A    
C161  C165  A    
C17   C175  A    
C209  H102  S    
C18   C176  A    
O24   Zn8   S    
C29   C125  A    
C69   C77   A    
C122  O54   S    
C31   C127  A    
C45   C93   A    
C174  C182  A    
C71   C79   A    
O21   Zn5   S    
C179  C186  A    
C62   C70   A    
C11   C176  A    
C13   H9    S    
C17   C144  A    
C151  H6    S    
C105  C113  A    
C18   C143  A    
C78   C118  A    
C188  N4    S    
C125  H41   S    
C149  C151  A    
C214  H114  S    
C66   C74   A    
C48   C96   A    
C8    C76   S    
C49   C57   A    
C124  C132  A    
C194  H68   S    
C52   C60   A    
O45   Zn9   S    
C53   C61   A    
C141  C159  A    
C20   C174  A    
C211  H107  S    
C190  H55   S    
C55   C63   A    
C6    O30   A    
C86   C181  S    
C56   C64   A    
C66   H22   S    
C35   C43   A    
C16   H12   S    
C10   C166  A    
C156  H1    S    
C45   C53   A    
C85   O9    A    
C22   C94   A    
C139  O39   A    
C197  C198  S    
C169  C177  A    
C92   O16   A    
C50   C98   A    
C211  H108  S    
O50   C196  S    
C216  H120  S    
C104  C112  A    
O37   Zn9   S    
C145  C163  A    
C1    O1    A    
C146  C164  A    
C14   C147  A    
C52   C100  A    
C16   C145  A    
C178  C186  A    
C136  O42   A    
C25   C38   A    
C88   O12   A    
C54   C139  S    
C46   C94   A    
C27   C40   A    
C4    O28   A    
C91   C180  S    
C182  C188  A    
C89   C178  S    
C7    O31   A    
C7    O7    A    
C205  C206  S    
C28   C36   A    
C209  C210  S    
C25   C97   A    
C202  H87   S    
C39   C116  A    
O13   Zn2   S    
C191  H59   S    
C67   C75   A    
C68   H24   S    
C215  H116  S    
C212  H110  S    
C22   C30   A    
C20   C141  A    
C195  H69   S    
C15   C146  A    
C58   C135  S    
C86   O18   A    
C59   C134  S    
O26   Zn5   S    
C134  O44   A    
C32   C128  A    
C210  H106  S    
C144  C152  A    
C200  C201  S    
C56   C137  S    
O22   Zn6   S    
C211  C212  S    
C143  C151  A    
C207  H98   S    
C5    C73   S    
C189  H52   S    
C150  H7    S    
C208  H101  S    
C91   O23   A    
C13   C171  A    
C198  H78   S    
C199  H79   S    
O52   C202  S    
C138  O48   A    
C6    O6    A    
C83   C99   A    
C117  C125  A    
C25   C33   A    
C206  H96   S    
C119  C127  A    
C205  H94   S    
C112  H36   S    
O51   C199  S    
O1    Zn1   S    
C157  C167  A    
C30   C126  A    
C158  C168  A    
C91   O15   A    
C204  H91   S    
C89   O13   A    
C164  C165  A    
O6    Zn6   S    
C40   C115  A    
C101  C109  A    
O19   Zn3   S    
C177  C185  A    
O20   Zn4   S    
C103  C111  A    
O27   Zn8   S    
C192  H63   S    
C205  H93   S    
O8    Zn8   S    
C162  C166  A    
C102  H26   S    
C79   C119  A    
C153  C155  A    
C154  C156  A    
C172  C180  A    
C87   O19   A    
C193  H65   S    
C173  C181  A    
N4    H61   S    
C157  C159  A    
C63   H19   S    
C158  C160  A    
C74   C82   A    
C195  H71   S    
C6    C74   S    
C196  H73   S    
C47   C103  A    
C50   C58   A    
C120  O52   S    
C163  C166  A    
C20   H16   S    
C197  H75   S    
C147  C161  A    
C200  H81   S    
C38   C113  A    
O46   Zn10  S    
C49   C105  A    
C54   C62   A    
C201  H85   S    
C130  H46   S    
C1    C69   S    
C23   C44   A    
O28   Zn7   S    
C3    C71   S    
C189  H50   S    
C19   C173  A    
C79   C95   A    
C155  H2    S    
C114  H38   S    
C14   H10   S    
C198  H76   S    
C199  C200  S    
C46   C54   A    
C4    O4    A    
C18   H14   S    
C111  H35   S    
C201  H84   S    
C45   C101  A    
C184  C187  A    
C138  O38   A    
C106  H30   S    
C19   C142  A    
O32   Zn3   S    
C102  C110  A    
C134  O34   A    
O15   Zn4   S    
C110  H34   S    
O16   Zn3   S    
C103  H27   S    
C4    C72   S    
C209  H103  S    
C33   C129  A    
O12   Zn7   S    
C123  C131  A    
C135  O41   A    
C121  C129  A    
C213  H113  S    
C120  C128  A    
C26   C37   A    
O9    Zn6   S    
C10   C170  A    
C28   C39   A    
C33   C41   A    
C142  C150  A    
C9    C165  A    
O38   Zn10  S    
O40   Zn9   S    
C75   C83   A    
C77   C93   A    
O14   Zn1   S    
C185  N1    S    
C194  H67   S    
C49   C97   A    
C108  H32   S    
C44   C111  A    
C16   C170  A    
C60   C68   A    
C72   C80   A    
C190  H54   S    
C29   C37   A    
C50   C106  A    
C9    C172  A    
C148  C156  A    
C83   C123  A    
C2    C70   S    
C60   C133  S    
C118  O50   S    
C3    O3    A    
C170  C178  A    
C214  C215  S    
C191  H58   S    
C80   C120  A    
C70   C78   A    
C53   C140  S    
N1    H49   S    
C186  N2    S    
C8    O32   A    
C124  O56   S    
C141  C149  A    
C212  H109  S    
C88   O20   A    
N3    H57   S    
C64   H20   S    
C55   C138  S    
C152  H5    S    
C106  C114  A    
C121  O53   S    
C126  H42   S    
C77   C117  A    
C216  H119  S    
O17   Zn1   S    
C117  O49   S    
O43   Zn12  S    
C48   C104  A    
C65   C73   A    
C159  C168  A    
C15   C169  A    
C160  C167  A    
C187  N3    S    
C26   C34   A    
C202  H86   S    
C146  C154  A    
C57   C136  S    
C80   C96   A    
C65   H21   S    
O2    Zn2   S    
C59   C67   A    
C28   C100  A    
C32   C40   A    
C52   C108  A    
C86   O10   A    
C203  H88   S    
C135  O35   A    
C92   O24   A    
C58   C66   A    
C143  C157  A    
C215  H117  S    
C51   C99   A    
N4    C192  S    
C137  O47   A    
C89   O21   A    
C14   C172  A    
C87   C184  S    
C2    O2    A    
C88   C183  S    
C7    C75   S    
C129  H45   S    
C194  C195  S    
C210  H105  S    
C200  H82   S    
C215  C216  S    
C15   H11   S    
C133  O33   A    
O23   Zn7   S    
C190  H56   S    
C127  H43   S    
C68   C76   A    
C189  H51   S    
C107  C115  A    
C208  H100  S    
C36   C132  A    
C213  H112  S    
O29   Zn2   S    
C26   C98   A    
C12   C175  A    
C1    O25   A    
C198  H77   S    
C199  H80   S    
O31   Zn4   S    
C3    O27   A    
C41   C110  A    
C150  C152  A    
C51   C59   A    
C43   C112  A    
C144  C158  A    
O54   C208  S    
C47   C55   A    
C206  H95   S    
C61   C69   A    
C48   C56   A    
C142  C160  A    
C12   C168  A    
C119  O51   S    
C84   C124  A    
C204  H90   S    
C85   O17   A    
C140  O40   A    
C145  C153  A    
C81   C97   A    
O48   Zn9   S    
C137  O37   A    
C31   C39   A    
C64   C72   A    
C192  H62   S    
C62   H18   S    
O35   Zn12  S    
C180  C185  A    
C202  C203  S    
C123  O55   S    
C34   C130  A    
C191  H60   S    
C61   H17   S    
C47   C95   A    
O56   C214  S    
C118  C126  A    
C13   C148  A    
C5    O5    A    
C122  C130  A    
C210  H104  S    
C46   C102  A    
C153  H4    S    
