data_str_m4_o22_o24_f0_acs.sym.109
_audit_creation_date              2013-03-05T15:47:18-0500
_audit_creation_method            fapswitch 2.2
_symmetry_space_group_name_H-M    P1
_symmetry_Int_Tables_number       1
_space_group_crystal_system       triclinic
_cell_length_a                    19.592716
_cell_length_b                    11.333431
_cell_length_c                    18.638141
_cell_angle_alpha                 90.039622
_cell_angle_beta                  89.74087
_cell_angle_gamma                 89.921031
_cell_volume                      4138.60217129

loop_
_atom_site_label
_atom_site_type_symbol
_atom_site_description
_atom_site_fract_x
_atom_site_fract_y
_atom_site_fract_z
_atom_type_partial_charge
O1    O     O_R   0.214130 0.708570 0.829890 -0.526866
O2    O     O_R   0.785870 0.708570 0.170110 -0.531547
O3    O     O_R   0.714130 0.208570 0.829890 -0.526009
O4    O     O_R   0.285870 0.208570 0.170110 -0.527439
O5    O     O_R   0.236050 0.959150 0.825270 -0.510029
O6    O     O_R   0.763950 0.959150 0.174730 -0.510763
O7    O     O_R   0.736050 0.459150 0.825270 -0.509698
O8    O     O_R   0.263950 0.459150 0.174730 -0.509689
C1    C     C_R   0.272938 0.041939 0.854518 0.532713
C2    C     C_R   0.727562 0.042508 0.145854 0.533152
C3    C     C_R   0.772768 0.542246 0.854609 0.533248
C4    C     C_R   0.227264 0.542453 0.145707 0.532851
O9    O     O_R   0.332100 0.076650 0.832310 -0.526227
O10   O     O_R   0.667900 0.076650 0.167690 -0.524639
O11   O     O_R   0.832100 0.576650 0.832310 -0.526072
O12   O     O_R   0.167900 0.576650 0.167690 -0.526358
O13   O     O_R   0.446500 0.918620 0.826240 -0.497951
O14   O     O_R   0.553500 0.918620 0.173760 -0.497067
O15   O     O_R   0.946500 0.418620 0.826240 -0.498209
O16   O     O_R   0.053500 0.418620 0.173760 -0.497940
C5    C     C_R   0.443619 0.817741 0.862500 0.523116
C6    C     C_R   0.555867 0.817588 0.137388 0.528724
C7    C     C_R   0.944177 0.317855 0.862476 0.522854
C8    C     C_R   0.055137 0.317745 0.137512 0.525095
O17   O     O_R   0.457310 0.715830 0.831280 -0.484924
O18   O     O_R   0.542690 0.715830 0.168720 -0.493356
O19   O     O_R   0.957310 0.215830 0.831280 -0.484932
O20   O     O_R   0.042690 0.215830 0.168720 -0.486893
O21   O     O_R   0.321000 0.623520 0.824130 -0.471316
O22   O     O_R   0.679000 0.623520 0.175870 -0.458404
O23   O     O_R   0.821000 0.123520 0.824130 -0.473351
O24   O     O_R   0.179000 0.123520 0.175870 -0.467761
C9    C     C_R   0.261273 0.638052 0.853576 0.544690
C10   C     C_R   0.738888 0.637063 0.147024 0.552796
C11   C     C_R   0.761545 0.138500 0.853795 0.543376
C12   C     C_R   0.238708 0.138188 0.146447 0.545977
O25   O     O_R   0.213990 0.710040 0.667000 -0.502288
O26   O     O_R   0.786010 0.710040 0.333000 -0.502790
O27   O     O_R   0.713990 0.210040 0.667000 -0.502107
O28   O     O_R   0.286010 0.210040 0.333000 -0.502331
O29   O     O_R   0.235920 0.960520 0.674260 -0.471457
O30   O     O_R   0.764080 0.960520 0.325740 -0.471782
O31   O     O_R   0.735920 0.460520 0.674260 -0.471411
O32   O     O_R   0.264080 0.460520 0.325740 -0.471595
C13   C     C_R   0.272854 0.045435 0.647107 0.534660
C14   C     C_R   0.727205 0.045660 0.352805 0.534816
C15   C     C_R   0.772858 0.545428 0.647103 0.534741
C16   C     C_R   0.227206 0.545659 0.352805 0.534818
O33   O     O_R   0.331960 0.078120 0.669410 -0.530053
O34   O     O_R   0.668040 0.078120 0.330590 -0.529799
O35   O     O_R   0.831960 0.578120 0.669410 -0.530063
O36   O     O_R   0.168040 0.578120 0.330590 -0.530351
O37   O     O_R   0.446360 0.919990 0.675230 -0.479776
O38   O     O_R   0.553640 0.919990 0.324770 -0.480080
O39   O     O_R   0.946360 0.419990 0.675230 -0.479827
O40   O     O_R   0.053640 0.419990 0.324770 -0.479966
C17   C     C_R   0.471326 0.823505 0.647057 0.564033
C18   C     C_R   0.528684 0.823593 0.352959 0.563685
C19   C     C_R   0.971328 0.323506 0.647058 0.563967
C20   C     C_R   0.028685 0.323592 0.352959 0.563765
O41   O     O_R   0.457170 0.717300 0.668380 -0.520735
O42   O     O_R   0.542830 0.717300 0.331620 -0.520451
O43   O     O_R   0.957170 0.217300 0.668380 -0.520842
O44   O     O_R   0.042830 0.217300 0.331620 -0.520949
O45   O     O_R   0.320870 0.624890 0.673130 -0.499258
O46   O     O_R   0.679130 0.624890 0.326870 -0.499432
O47   O     O_R   0.820870 0.124890 0.673130 -0.499153
O48   O     O_R   0.179130 0.124890 0.326870 -0.499689
C21   C     C_R   0.271838 0.680170 0.636586 0.538134
C22   C     C_R   0.728121 0.680320 0.363386 0.536995
C23   C     C_R   0.771835 0.180161 0.636585 0.538239
C24   C     C_R   0.228121 0.180316 0.363384 0.537566
Cr1   Cr    Cr6+3 0.229620 0.836040 0.749110 1.049703
Cr2   Cr    Cr6+3 0.770380 0.836040 0.250890 1.048973
Cr3   Cr    Cr6+3 0.729620 0.336040 0.749110 1.050423
Cr4   Cr    Cr6+3 0.270380 0.336040 0.250890 1.050625
Cr5   Cr    Cr6+3 0.387630 0.990680 0.750730 1.036640
Cr6   Cr    Cr6+3 0.612370 0.990680 0.249270 1.039633
Cr7   Cr    Cr6+3 0.887630 0.490680 0.750730 1.036145
Cr8   Cr    Cr6+3 0.112370 0.490680 0.249270 1.036744
Cr9   Cr    Cr6+3 0.386020 0.676590 0.749210 1.062415
Cr10  Cr    Cr6+3 0.613980 0.676590 0.250790 1.066821
Cr11  Cr    Cr6+3 0.886020 0.176590 0.749210 1.061494
Cr12  Cr    Cr6+3 0.113980 0.176590 0.250790 1.062733
O49   O     O_3   0.334430 0.834430 0.749680 -0.329691
O50   O     O_3   0.665570 0.834430 0.250320 -0.329738
O51   O     O_3   0.834430 0.334430 0.749680 -0.329064
O52   O     O_3   0.165570 0.334430 0.250320 -0.328635
C25   C     C_3   0.477732 0.917193 0.038146 -0.100326
C26   C     C_3   0.515599 0.922907 0.964985 -0.104629
C27   C     C_3   0.978797 0.419627 0.037132 -0.104987
C28   C     C_3   0.017907 0.421281 0.964398 -0.103439
C29   C     C_3   0.431742 0.817962 0.009008 -0.167871
C30   C     C_3   0.566734 0.828987 0.990932 -0.184818
C31   C     C_3   0.931379 0.321948 0.008488 -0.173634
C32   C     C_3   0.066775 0.324975 0.992162 -0.179359
H1    H     H_    0.378051 0.804741 0.023051 0.087697
H2    H     H_    0.618062 0.828144 0.968561 0.100855
H3    H     H_    0.877449 0.309055 0.022760 0.085303
H4    H     H_    0.120377 0.313685 0.977099 0.087214
H5    H     H_    0.461990 0.995154 0.070046 0.125782
H6    H     H_    0.528335 0.005513 0.936004 0.125143
H7    H     H_    0.963181 0.498935 0.067992 0.126848
H8    H     H_    0.032116 0.502216 0.934528 0.125004
C33   C     C_3   0.470210 0.823971 0.936674 0.046675
C34   C     C_3   0.528549 0.823619 0.063460 0.041202
C35   C     C_3   0.970848 0.324150 0.936570 0.041647
C36   C     C_3   0.027463 0.323884 0.063978 0.038660
C37   C     C_3   0.520633 0.730486 0.962650 -0.094328
C38   C     C_3   0.482822 0.724836 0.034895 -0.089032
C39   C     C_3   0.019201 0.228500 0.964035 -0.070477
C40   C     C_3   0.980558 0.226853 0.035809 -0.067590
H9    H     H_    0.538376 0.651999 0.932204 0.157461
H10   H     H_    0.469352 0.641608 0.062876 0.167325
H11   H     H_    0.035585 0.148287 0.934445 0.170660
H12   H     H_    0.966161 0.145106 0.064787 0.173519
C41   C     C_3   0.310371 0.521446 0.042916 -0.187128
C42   C     C_3   0.692392 0.511733 0.959430 -0.200022
C43   C     C_3   0.813546 0.027469 0.044220 -0.187189
C44   C     C_3   0.190353 0.019526 0.957474 -0.188492
H13   H     H_    0.319954 0.431724 0.061595 0.123129
H14   H     H_    0.685536 0.423177 0.938593 0.130237
H15   H     H_    0.827673 0.938927 0.063416 0.123933
H16   H     H_    0.181922 0.929462 0.939156 0.122723
H17   H     H_    0.352418 0.573682 0.067164 0.141281
H18   H     H_    0.647588 0.560489 0.938116 0.127153
H19   H     H_    0.852922 0.085875 0.067992 0.138025
H20   H     H_    0.147839 0.070077 0.932771 0.138451
C45   C     C_3   0.314925 0.526985 0.960699 0.100093
C46   C     C_3   0.691092 0.512058 0.042261 0.098442
C47   C     C_3   0.817743 0.031841 0.961796 0.102279
C48   C     C_3   0.185520 0.026268 0.039679 0.101042
H21   H     H_    0.309869 0.436471 0.939466 0.153965
H22   H     H_    0.706754 0.424728 0.061477 0.151348
H23   H     H_    0.815054 0.940383 0.941320 0.154612
H24   H     H_    0.190876 0.936245 0.061505 0.153426
H25   H     H_    0.679267 0.922695 0.042785 0.100590
H26   H     H_    0.335886 0.936898 0.955532 0.100589
H27   H     H_    0.165187 0.437068 0.045725 0.102660
H28   H     H_    0.834574 0.441408 0.959243 0.100796
H29   H     H_    0.699979 0.938661 0.917854 0.102026
H30   H     H_    0.307381 0.943163 0.080146 0.104021
H31   H     H_    0.194317 0.441448 0.920420 0.103836
H32   H     H_    0.822456 0.465202 0.083681 0.105998
C49   C     C_3   0.178386 0.523934 0.026204 -0.227090
C50   C     C_3   0.823442 0.532150 0.973523 -0.232488
C51   C     C_3   0.683026 0.013387 0.025871 -0.233941
C52   C     C_3   0.322205 0.024421 0.974080 -0.227579
C53   C     C_3   0.243012 0.703029 0.056012 -0.269828
C54   C     C_3   0.750682 0.702238 0.944913 -0.264554
C55   C     C_3   0.739042 0.201707 0.055553 -0.268742
C56   C     C_3   0.255930 0.202438 0.944084 -0.269462
C57   C     C_3   0.240847 0.571268 0.069663 0.028788
C58   C     C_3   0.758833 0.571117 0.930982 0.027914
C59   C     C_3   0.741999 0.070264 0.069874 0.027723
C60   C     C_3   0.259373 0.070623 0.930593 0.029223
H33   H     H_    0.196595 0.745385 0.078871 0.139589
H34   H     H_    0.797668 0.749392 0.928024 0.135341
H35   H     H_    0.690167 0.237710 0.076963 0.155148
H36   H     H_    0.301865 0.245875 0.921128 0.139284
H37   H     H_    0.287499 0.743346 0.082973 0.105581
H38   H     H_    0.707597 0.737699 0.913076 0.105979
H39   H     H_    0.781270 0.248800 0.082897 0.102571
H40   H     H_    0.210815 0.241305 0.917298 0.105608
C61   C     C_3   0.254129 0.603002 0.930644 0.045631
C62   C     C_3   0.745347 0.602670 0.070159 0.060088
C63   C     C_3   0.755019 0.103063 0.930889 0.045174
C64   C     C_3   0.245855 0.103123 0.069461 0.047767
C65   C     C_3   0.189389 0.530520 0.944286 -0.282047
C66   C     C_3   0.815991 0.550111 0.054726 -0.280996
C67   C     C_3   0.692594 0.025524 0.943918 -0.282662
C68   C     C_3   0.311209 0.032077 0.055879 -0.282480
C69   C     C_3   0.245155 0.720131 0.974061 -0.240233
C70   C     C_3   0.738245 0.718092 0.026311 -0.237867
C71   C     C_3   0.742087 0.219047 0.973965 -0.243284
C72   C     C_3   0.253486 0.220127 0.025956 -0.239296
H41   H     H_    0.284447 0.782488 0.958349 0.091376
H42   H     H_    0.685960 0.745447 0.036416 0.090553
H43   H     H_    0.779713 0.285935 0.959235 0.089334
H44   H     H_    0.212816 0.280027 0.041278 0.090649
H45   H     H_    0.194687 0.755552 0.959397 0.142699
H46   H     H_    0.773251 0.785510 0.046351 0.134714
H47   H     H_    0.690482 0.249038 0.958677 0.146627
H48   H     H_    0.303072 0.258410 0.040843 0.142347
H49   H     H_    0.633172 0.054678 0.040294 0.156520
H50   H     H_    0.368108 0.078422 0.960997 0.153617
H51   H     H_    0.132154 0.577608 0.038910 0.153646
H52   H     H_    0.869169 0.583031 0.955926 0.157540
H53   H     H_    0.144444 0.573037 0.918785 0.142587
H54   H     H_    0.856819 0.610747 0.073549 0.149476
H55   H     H_    0.646142 0.065528 0.919871 0.142573
H56   H     H_    0.355596 0.076593 0.081022 0.142327
C73   C     C_3   0.497393 0.705574 0.460132 -0.257999
C74   C     C_3   0.502609 0.705564 0.539771 -0.258183
C75   C     C_3   0.997398 0.205578 0.460134 -0.257994
C76   C     C_3   0.002613 0.205567 0.539773 -0.258189
H57   H     H_    0.528825 0.632740 0.439061 0.196826
H58   H     H_    0.471248 0.632842 0.560806 0.196328
H59   H     H_    0.028822 0.132738 0.439061 0.196769
H60   H     H_    0.971243 0.132852 0.560804 0.196323
H61   H     H_    0.446757 0.676630 0.444572 0.144917
H62   H     H_    0.553238 0.676530 0.555307 0.145262
H63   H     H_    0.946760 0.176640 0.444576 0.144903
H64   H     H_    0.053241 0.176521 0.555313 0.145229
H65   H     H_    0.611390 0.862963 0.448283 0.064598
H66   H     H_    0.388641 0.863113 0.551758 0.065011
H67   H     H_    0.111396 0.362999 0.448278 0.064734
H68   H     H_    0.888648 0.363088 0.551757 0.065044
H69   H     H_    0.602672 0.847998 0.575673 0.088047
H70   H     H_    0.397303 0.848340 0.424409 0.088003
H71   H     H_    0.102676 0.348012 0.575673 0.088018
H72   H     H_    0.897305 0.348332 0.424412 0.087989
C77   C     C_3   0.564672 0.900920 0.469450 -0.223091
C78   C     C_3   0.435313 0.901082 0.530658 -0.222888
C79   C     C_3   0.064673 0.400928 0.469448 -0.223057
C80   C     C_3   0.935315 0.401083 0.530658 -0.222864
C81   C     C_3   0.441003 0.898193 0.446441 -0.073389
C82   C     C_3   0.558977 0.897991 0.553658 -0.073325
C83   C     C_3   0.941004 0.398188 0.446441 -0.073377
C84   C     C_3   0.058979 0.398000 0.553658 -0.073334
C85   C     C_3   0.507457 0.832329 0.429696 0.014114
C86   C     C_3   0.492549 0.832284 0.570337 0.013994
C87   C     C_3   0.007460 0.332329 0.429696 0.014243
C88   C     C_3   0.992553 0.332289 0.570338 0.014035
H73   H     H_    0.433754 0.993665 0.549616 0.204819
H74   H     H_    0.566127 0.993503 0.450595 0.204833
H75   H     H_    0.933744 0.493669 0.549615 0.204787
H76   H     H_    0.066117 0.493509 0.450593 0.204885
C89   C     C_3   0.199935 0.698059 0.446241 -0.258998
C90   C     C_3   0.800166 0.697659 0.553768 -0.258838
C91   C     C_3   0.699909 0.198028 0.446253 -0.258839
C92   C     C_3   0.300125 0.197706 0.553782 -0.258829
H77   H     H_    0.145854 0.694560 0.428523 0.193568
H78   H     H_    0.854289 0.693681 0.571345 0.193704
H79   H     H_    0.645826 0.194496 0.428541 0.193736
H80   H     H_    0.354243 0.193791 0.571378 0.193749
H81   H     H_    0.223455 0.776349 0.421070 0.119652
H82   H     H_    0.776781 0.776063 0.579157 0.119912
H83   H     H_    0.723406 0.276345 0.421088 0.119917
H84   H     H_    0.276703 0.276082 0.579162 0.119880
C93   C     C_3   0.198053 0.708919 0.528014 -0.243344
C94   C     C_3   0.801936 0.708760 0.472019 -0.243516
C95   C     C_3   0.698031 0.208869 0.528025 -0.243452
C96   C     C_3   0.301912 0.208807 0.472032 -0.243553
H85   H     H_    0.188217 0.798905 0.545740 0.173976
H86   H     H_    0.811756 0.798782 0.454528 0.173874
H87   H     H_    0.688159 0.298844 0.545761 0.173968
H88   H     H_    0.311702 0.298835 0.454542 0.173811
H89   H     H_    0.151676 0.665805 0.548113 0.199348
H90   H     H_    0.848255 0.665515 0.451770 0.199683
H91   H     H_    0.651670 0.165707 0.548121 0.199331
H92   H     H_    0.348251 0.165606 0.451793 0.199666
H93   H     H_    0.669069 0.998198 0.486577 0.118192
H94   H     H_    0.330856 0.997868 0.513083 0.118210
H95   H     H_    0.169043 0.498286 0.486582 0.118282
H96   H     H_    0.830826 0.497767 0.513070 0.118154
H97   H     H_    0.712054 0.979884 0.596010 0.156767
H98   H     H_    0.287921 0.979958 0.403725 0.156611
H99   H     H_    0.212027 0.479924 0.596017 0.156769
H100  H     H_    0.787883 0.479932 0.403720 0.156660
C97   C     C_3   0.222780 0.488673 0.479416 -0.248420
C98   C     C_3   0.777120 0.488503 0.520319 -0.249006
C99   C     C_3   0.722809 0.988646 0.479409 -0.248460
C100  C     C_3   0.277153 0.988534 0.520323 -0.248910
C101  C     C_3   0.319680 0.613943 0.437272 -0.045968
C102  C     C_3   0.680374 0.614216 0.562724 -0.045831
C103  C     C_3   0.819672 0.113984 0.437263 -0.045891
C104  C     C_3   0.180360 0.114163 0.562711 -0.045781
C105  C     C_3   0.243421 0.585897 0.426008 0.033357
C106  C     C_3   0.756613 0.585752 0.573903 0.033016
C107  C     C_3   0.743419 0.085898 0.426007 0.033294
C108  C     C_3   0.256605 0.085757 0.573906 0.033058
H101  H     H_    0.334612 0.680650 0.396197 0.085569
H102  H     H_    0.665439 0.680818 0.603958 0.085850
H103  H     H_    0.834591 0.180703 0.396189 0.085559
H104  H     H_    0.165405 0.180757 0.603940 0.085786
C109  C     C_3   0.261608 0.644053 0.560697 0.026844
C110  C     C_3   0.738368 0.644271 0.439283 0.027088
C111  C     C_3   0.761605 0.144043 0.560697 0.026789
C112  C     C_3   0.238368 0.144267 0.439282 0.026948
C113  C     C_3   0.249557 0.510939 0.555287 -0.234748
C114  C     C_3   0.750362 0.511096 0.444499 -0.234143
C115  C     C_3   0.749580 0.010923 0.555283 -0.234725
C116  C     C_3   0.250394 0.011100 0.444502 -0.234313
C117  C     C_3   0.324386 0.670730 0.512751 -0.248978
C118  C     C_3   0.675677 0.671315 0.487360 -0.249034
C119  C     C_3   0.824373 0.170766 0.512744 -0.248990
C120  C     C_3   0.175661 0.171255 0.487346 -0.249017
H105  H     H_    0.323370 0.763447 0.500281 0.072088
H106  H     H_    0.676928 0.764002 0.500079 0.072389
H107  H     H_    0.823336 0.263487 0.500280 0.072063
H108  H     H_    0.176880 0.263939 0.500059 0.072389
H109  H     H_    0.370343 0.647196 0.541628 0.166312
H110  H     H_    0.629647 0.648393 0.458487 0.165899
H111  H     H_    0.870339 0.147255 0.541613 0.166277
H112  H     H_    0.129647 0.148282 0.458461 0.166006
H113  H     H_    0.231085 0.402411 0.457488 0.106302
H114  H     H_    0.768656 0.402277 0.542068 0.106465
H115  H     H_    0.731158 0.902402 0.457471 0.106411
H116  H     H_    0.268733 0.902293 0.542068 0.106410
H117  H     H_    0.297779 0.462974 0.565009 0.191885
H118  H     H_    0.702134 0.463430 0.434657 0.192512
H119  H     H_    0.797811 0.962983 0.565006 0.191884
H120  H     H_    0.202175 0.963405 0.434664 0.192287
C121  C     C_2   0.437989 0.017467 0.409643 0.533312
O53   O     O_2   0.464542 0.104617 0.436247 -0.514203
O54   O     O_R   0.406636 0.025963 0.342613 -0.696088
H121  H     H_    0.409957 0.108152 0.321490 0.360912
C122  C     C_2   0.561994 0.017269 0.590545 0.533671
O55   O     O_2   0.535368 0.104506 0.564051 -0.513970
O56   O     O_R   0.593477 0.025689 0.657511 -0.695974
H122  H     H_    0.590193 0.107915 0.678679 0.360877
C123  C     C_2   0.937986 0.517455 0.409637 0.533262
O57   O     O_2   0.964546 0.604608 0.436229 -0.514373
O58   O     O_R   0.906621 0.525940 0.342612 -0.696267
H123  H     H_    0.909942 0.608124 0.321481 0.360689
C124  C     C_2   0.061992 0.517284 0.590539 0.533697
O59   O     O_2   0.035377 0.604520 0.564032 -0.514037
O60   O     O_R   0.093454 0.525710 0.657516 -0.696162
H124  H     H_    0.090170 0.607940 0.678677 0.360708
C125  C     C_2   0.368883 0.510049 0.427920 0.544032
O61   O     O_2   0.389008 0.483521 0.367830 -0.484282
O62   O     O_R   0.397356 0.453552 0.487475 -0.746876
H125  H     H_    0.431570 0.390215 0.473621 0.360783
C126  C     C_2   0.631233 0.510428 0.571861 0.543583
O63   O     O_2   0.611073 0.483828 0.631893 -0.484542
O64   O     O_R   0.602814 0.454194 0.512184 -0.747030
H126  H     H_    0.568600 0.390971 0.525904 0.360521
C127  C     C_2   0.868885 0.010106 0.427901 0.544059
O65   O     O_2   0.889016 0.983603 0.367809 -0.484898
O66   O     O_R   0.897360 0.953598 0.487450 -0.746890
H127  H     H_    0.931583 0.890277 0.473590 0.360703
C128  C     C_2   0.131232 0.010354 0.571840 0.543613
O67   O     O_2   0.111092 0.983709 0.631869 -0.484753
O68   O     O_R   0.102807 0.954142 0.512160 -0.747175
H128  H     H_    0.068606 0.890895 0.525874 0.360486
O69   O     O_3   0.380038 0.564575 0.939947 -0.684882
H129  H     H_    0.378797 0.651024 0.941310 0.333397
O70   O     O_3   0.624231 0.529665 0.067876 -0.678700
H130  H     H_    0.608691 0.607870 0.051372 0.330305
O71   O     O_3   0.881737 0.073697 0.940775 -0.686778
H131  H     H_    0.877259 0.159748 0.939251 0.332053
O72   O     O_3   0.120291 0.064341 0.060071 -0.684953
H132  H     H_    0.120515 0.150584 0.055381 0.330201

loop_
_geom_bond_atom_site_label_1
_geom_bond_atom_site_label_2
_geom_bond_distance
_ccdc_geom_bond_type
O4    C12   1.299951 A    
H96   C98   1.065630 S    
C80   C83   1.573417 S    
Cr7   O51   2.056204 S    
O69   H129  0.980343 S    
C128  O67   1.222902 D    
H71   C84   1.106549 S    
C103  H103  1.114734 S    
C103  C119  1.549799 S    
C93   H85   1.088488 S    
O39   C19   1.306192 A    
C31   H3    1.098421 S    
C75   H63   1.085970 S    
C52   H50   1.114735 S    
O21   C9    1.300484 A    
C12   C64   1.494543 S    
C73   H61   1.085976 S    
C79   H76   1.107137 S    
C1    O9    1.291064 A    
O44   Cr12  2.098583 S    
C77   H74   1.107157 S    
C78   C86   1.555093 S    
C3    C58   1.484399 S    
C126  O64   1.399615 S    
C3    O11   1.293537 A    
C56   C60   1.516122 S    
C1    C60   1.477317 S    
C25   C34   1.529908 S    
C55   C59   1.514683 S    
C76   H64   1.085367 S    
C51   C59   1.559835 S    
C73   C74   1.488299 S    
C29   C38   1.533130 S    
C74   C86   1.556626 S    
O2    C10   1.301694 A    
C32   C36   1.541342 S    
C104  C120  1.550006 S    
O17   Cr9   2.123348 S    
C46   H22   1.096675 S    
C61   C65   1.532525 S    
C62   C70   1.549342 S    
O16   Cr8   1.998433 S    
O62   H125  1.013990 S    
H99   C113  1.111992 S    
C93   H89   1.096876 S    
C103  C127  1.530120 S    
C95   C111  1.570689 S    
C63   C67   1.525678 S    
C90   C106  1.574259 S    
C48   C64   1.572368 S    
O13   C5    1.329645 A    
O28   Cr4   2.116865 S    
O12   Cr8   2.105933 S    
O22   Cr10  1.978663 S    
O15   C7    1.327905 A    
C80   C88   1.555111 S    
C93   C109  1.570678 S    
O46   Cr10  1.999711 S    
C50   C58   1.560171 S    
O48   C24   1.336448 A    
C7    C35   1.480449 S    
C122  O55   1.222744 D    
C76   C88   1.556639 S    
C45   H21   1.104010 S    
C41   C57   1.553784 S    
C94   C110  1.570484 S    
C89   H81   1.104302 S    
O31   Cr3   1.988317 S    
C71   H47   1.104898 S    
C72   H48   1.101168 S    
C97   H113  1.071315 S    
C25   H5    1.107331 S    
O36   Cr8   2.117739 S    
Cr12  O52   2.055904 S    
C26   C33   1.527324 S    
C27   H7    1.108720 S    
O7    Cr3   1.994218 S    
C17   O41   1.297793 A    
C43   H15   1.101001 S    
C30   C37   1.531743 S    
C19   O43   1.297809 A    
C22   C110  1.487073 S    
C20   O44   1.297539 A    
Cr8   O52   2.053751 S    
C79   C84   1.573333 S    
C15   C106  1.475087 S    
O46   C22   1.336479 A    
C119  H111  1.084217 S    
C90   H78   1.112154 S    
C120  H112  1.084081 S    
C19   C88   1.490790 S    
C28   H8    1.108534 S    
C75   C76   1.488294 S    
C16   O36   1.286055 A    
C125  O61   1.222864 D    
O27   C23   1.308955 A    
O31   C15   1.305855 A    
O32   C16   1.304459 A    
C55   H35   1.112620 S    
O47   Cr11  2.000167 S    
C39   C40   1.534278 S    
C82   C122  1.517529 S    
C65   H53   1.111974 S    
C70   H46   1.094107 S    
C68   H56   1.111314 S    
O39   Cr7   1.981749 S    
O24   C12   1.300666 A    
C123  O58   1.397987 S    
C117  H105  1.076537 S    
C92   H80   1.112124 S    
C118  H110  1.084096 S    
C42   H14   1.084660 S    
O32   Cr4   1.986704 S    
C26   H6    1.109339 S    
C53   C57   1.515616 S    
O11   Cr7   2.103575 S    
H95   C97   1.066124 S    
H26   C52   1.083164 S    
C121  O54   1.397985 S    
C43   C47   1.538893 S    
O27   Cr3   2.116006 S    
O3    Cr3   2.108568 S    
C38   H10   1.109727 S    
C97   C105  1.538720 S    
C48   H24   1.103680 S    
H93   C99   1.066111 S    
C99   C107  1.538721 S    
H94   C100  1.065625 S    
C127  O66   1.399594 S    
C89   C105  1.573999 S    
C18   C85   1.490861 S    
C75   H59   1.100353 S    
C122  O56   1.397990 S    
C28   C32   1.542140 S    
C32   C39   1.531532 S    
C95   H91   1.096842 S    
O22   C10   1.297801 A    
C4    O12   1.290400 A    
C2    O10   1.294603 A    
C27   C28   1.554326 S    
C114  H118  1.105076 S    
C109  C117  1.547344 S    
C23   C111  1.486704 S    
O68   H128  1.014005 S    
C24   C112  1.487101 S    
C111  C119  1.547373 S    
O5    C1    1.305604 A    
C90   C94   1.529159 S    
O25   C21   1.308964 A    
O3    C11   1.301681 A    
O8    C4    1.304973 A    
C104  H104  1.114692 S    
Cr1   O49   2.053646 S    
C97   C113  1.531400 S    
C101  H101  1.114735 S    
C62   C66   1.532063 S    
C111  C115  1.530651 S    
C20   C87   1.490851 S    
C29   H1    1.093413 S    
C40   H12   1.108907 S    
C84   C124  1.517545 S    
C63   C71   1.559635 S    
O26   Cr2   2.116865 S    
Cr3   O51   2.053646 S    
C64   C72   1.561791 S    
C5    O17   1.319612 A    
O29   C13   1.305846 A    
O28   C24   1.309988 A    
O14   C6    1.330904 A    
C35   C39   1.528722 S    
C9    C61   1.496582 S    
C100  H116  1.071064 S    
C2    C59   1.477040 S    
C77   C82   1.573327 S    
C55   H39   1.110754 S    
O40   Cr8   1.983819 S    
C83   C123  1.517415 S    
O41   Cr9   2.099883 S    
H66   C78   1.083561 S    
C74   H58   1.100092 S    
Cr5   O49   2.056204 S    
C32   H4    1.093191 S    
O33   Cr5   2.117313 S    
C42   C58   1.557332 S    
C89   H77   1.112048 S    
O35   Cr7   2.117313 S    
O29   Cr1   1.988317 S    
C72   H44   1.083307 S    
O40   C20   1.307143 A    
O18   Cr10  2.122984 S    
C98   H114  1.071072 S    
H97   C115  1.112004 S    
H98   C116  1.112061 S    
C41   H17   1.112540 S    
Cr9   O49   2.053468 S    
C43   H19   1.110749 S    
C18   O42   1.297543 A    
C13   C108  1.475102 S    
Cr11  O51   2.053468 S    
O26   C22   1.310009 A    
O20   Cr12  2.122984 S    
O56   H122  1.013574 S    
C91   H79   1.112051 S    
C94   H86   1.088419 S    
H70   C81   1.106843 S    
C49   H51   1.114867 S    
C120  H108  1.076986 S    
C50   H52   1.114353 S    
C31   C40   1.533500 S    
O38   C18   1.307144 A    
H27   C49   1.081122 S    
C30   H2    1.086957 S    
C74   H62   1.085341 S    
H32   C66   1.111003 S    
C44   C60   1.552895 S    
O30   C14   1.304467 A    
C124  O60   1.397979 S    
C78   H73   1.107280 S    
C101  C105  1.543225 S    
C33   C37   1.528102 S    
C77   C85   1.555327 S    
C30   C34   1.543315 S    
C66   H54   1.113073 S    
C26   C30   1.540388 S    
C8    C36   1.477813 S    
C99   H115  1.071328 S    
C70   H42   1.085498 S    
C73   C85   1.557335 S    
O42   Cr10  2.098583 S    
C69   H45   1.102320 S    
O58   H123  1.013570 S    
C100  C108  1.538571 S    
C81   C85   1.530749 S    
O24   Cr12  1.978663 S    
O34   Cr6   2.117739 S    
O6    Cr2   1.995348 S    
C17   C86   1.490772 S    
C128  O68   1.399605 S    
C54   H38   1.109115 S    
C49   C65   1.542858 S    
O30   Cr2   1.986704 S    
C55   C71   1.534338 S    
C118  H106  1.077047 S    
C45   O69   1.398522 S    
O54   H121  1.013572 S    
O48   Cr12  1.999711 S    
C8    O20   1.316189 A    
H28   C50   1.083769 S    
O37   C17   1.306198 A    
C15   O35   1.286995 A    
Cr10  O50   2.055904 S    
C25   C29   1.542101 S    
C36   C40   1.528358 S    
O43   Cr11  2.099883 S    
C94   H90   1.096205 S    
O37   Cr5   1.981749 S    
O66   H127  1.013993 S    
C112  C120  1.547295 S    
O21   Cr9   1.980320 S    
C42   C46   1.543922 S    
C98   C106  1.538590 S    
C89   C93   1.529254 S    
C102  C118  1.550006 S    
O45   Cr9   2.000167 S    
O70   H130  0.986605 S    
C13   O33   1.287022 A    
C104  C128  1.530203 S    
O13   Cr5   1.997929 S    
C67   H55   1.112480 S    
O15   Cr7   1.997929 S    
C31   C35   1.544680 S    
C95   H87   1.088541 S    
C100  C116  1.531060 S    
O23   C11   1.298063 A    
C53   H37   1.107132 S    
C109  C113  1.530653 S    
C110  C118  1.547329 S    
C92   C96   1.529194 S    
C27   C36   1.529435 S    
H25   C51   1.077828 S    
O6    C2    1.301072 A    
C44   H20   1.112013 S    
H72   C83   1.106841 S    
C54   H34   1.109561 S    
C45   C61   1.574404 S    
O1    Cr1   2.108568 S    
O19   Cr11  2.123348 S    
O64   H126  1.014011 S    
C37   C38   1.535339 S    
C103  C107  1.543193 S    
C123  O57   1.222764 D    
C98   C114  1.531073 S    
C102  H102  1.114710 S    
O45   C21   1.335729 A    
O47   C23   1.335730 A    
C126  O63   1.222942 D    
C101  C125  1.530105 S    
O1    C9    1.299588 A    
C83   C87   1.530743 S    
O60   H124  1.013573 S    
C102  C126  1.530211 S    
C96   H88   1.088381 S    
C64   C68   1.531648 S    
C121  O53   1.222765 D    
C6    O18   1.318368 A    
C52   C60   1.566670 S    
C25   C26   1.550850 S    
C10   C62   1.489238 S    
C53   H33   1.110860 S    
C5    C33   1.481260 S    
O38   Cr6   1.983819 S    
O72   H132  0.981403 S    
C56   H36   1.110611 S    
C14   C107  1.474384 S    
C127  O65   1.222861 D    
H29   C67   1.106530 S    
C4    C57   1.477735 S    
C76   H60   1.100110 S    
O23   Cr11  1.980320 S    
O71   H131  0.979520 S    
C51   H49   1.114244 S    
O7    C3    1.306972 A    
H69   C82   1.106545 S    
C47   H23   1.105720 S    
C61   C69   1.563489 S    
C96   C112  1.570473 S    
C99   C115  1.531416 S    
C91   H83   1.104317 S    
C46   C62   1.569154 S    
C41   H13   1.091332 S    
C29   C33   1.543159 S    
O16   C8    1.327834 A    
C125  O62   1.399609 S    
C91   C107  1.574019 S    
C11   C63   1.497201 S    
H65   C77   1.083480 S    
C7    O19   1.318409 A    
C47   O71   1.395734 S    
Cr4   O52   2.053692 S    
O2    Cr2   2.106569 S    
C37   H9    1.109401 S    
C49   C57   1.565779 S    
Cr6   O50   2.053751 S    
H68   C80   1.083580 S    
C48   O72   1.399218 S    
O5    Cr1   1.994218 S    
H67   C79   1.083465 S    
C51   C67   1.544323 S    
C82   C86   1.531152 S    
O9    Cr5   2.103575 S    
C80   H75   1.107316 S    
C104  C108  1.542848 S    
H31   C65   1.106788 S    
C102  C106  1.542820 S    
C71   H43   1.092475 S    
C6    C34   1.482023 S    
C27   C31   1.542780 S    
C91   C95   1.529211 S    
C28   C35   1.528805 S    
C69   H41   1.085177 S    
C21   C109  1.486712 S    
C92   C108  1.574243 S    
Cr2   O50   2.053692 S    
C46   O70   1.406159 S    
C56   H40   1.108075 S    
O14   Cr6   1.998433 S    
C54   C70   1.545777 S    
C16   C105  1.474396 S    
C81   C121  1.517431 S    
C50   C66   1.533245 S    
O8    Cr4   1.995348 S    
C110  C114  1.530428 S    
C119  H107  1.076567 S    
C90   H82   1.104436 S    
C113  H117  1.105118 S    
C84   C88   1.531156 S    
C41   C45   1.535887 S    
H30   C68   1.107346 S    
C34   C38   1.531597 S    
C115  H119  1.105122 S    
O25   Cr1   2.116006 S    
C116  H120  1.105072 S    
C43   C59   1.555841 S    
C96   H92   1.096235 S    
C44   C48   1.536495 S    
C112  C116  1.530425 S    
C78   C81   1.573414 S    
C79   C87   1.555320 S    
H100  C114  1.112080 S    
C101  C117  1.549794 S    
C14   O34   1.286039 A    
C75   C87   1.557309 S    
C73   H57   1.100375 S    
C52   C68   1.541124 S    
C53   C69   1.540191 S    
O10   Cr6   2.105933 S    
C124  O59   1.222737 D    
O4    Cr4   2.106569 S    
C47   C63   1.580499 S    
C56   C72   1.539429 S    
C54   C58   1.516475 S    
C117  H109  1.084209 S    
C92   H84   1.104404 S    
C39   H11   1.109302 S    
C42   H18   1.111691 S    
C44   H16   1.089150 S    
