data_str_m3_o40_o41_f0_fof.sym.18
_audit_creation_date              2012-12-10T16:37:55-0500
_audit_creation_method            fapswitch 2.2
_symmetry_space_group_name_H-M    P1
_symmetry_Int_Tables_number       1
_space_group_crystal_system       triclinic
_cell_length_a                    27.992635
_cell_length_b                    18.613464
_cell_length_c                    16.897721
_cell_angle_alpha                 89.726617
_cell_angle_beta                  60.913883
_cell_angle_gamma                 89.897734
_cell_volume                      7693.97700466

loop_
_atom_site_label
_atom_site_type_symbol
_atom_type_description
_atom_site_fract_x
_atom_site_fract_y
_atom_site_fract_z
_atom_type_partial_charge
C1    C     C_R   0.700648 0.265812 0.677079 0.887166
C2    C     C_R   0.078783 0.499659 0.568745 0.083713
C3    C     C_R   0.199348 0.203166 0.897992 0.063544
C4    C     C_R   0.609695 0.315815 0.051913 -0.186052
C5    C     C_R   0.384485 0.682753 0.952486 -0.170251
C6    C     C_R   0.386166 0.325119 0.948633 -0.171188
C7    C     C_R   0.665706 0.593814 0.984900 -0.169446
C8    C     C_R   0.109784 0.815976 0.051864 -0.186120
C9    C     C_R   0.884411 0.182697 0.952588 -0.169796
C10   C     C_R   0.886115 0.825217 0.948669 -0.171101
C11   C     C_R   0.165646 0.093867 0.985030 -0.169912
C12   C     C_R   0.636594 0.294250 0.098879 -0.137561
C13   C     C_R   0.392432 0.002825 0.526776 0.076249
C14   C     C_R   0.355079 0.699712 0.907589 -0.169406
C15   C     C_R   0.356036 0.311156 0.905022 -0.184639
C16   C     C_R   0.695877 0.607361 0.028609 -0.161764
C17   C     C_R   0.136720 0.794526 0.098806 -0.137734
C18   C     C_R   0.855011 0.199653 0.907688 -0.168564
C19   C     C_R   0.855958 0.811300 0.905098 -0.184982
C20   C     C_R   0.195765 0.107465 0.028812 -0.161659
C21   C     C_R   0.740004 0.186986 0.795383 -0.092262
C22   C     C_R   0.223239 0.729839 0.237477 -0.086025
C23   C     C_R   0.266140 0.176807 0.200059 -0.244652
C24   C     C_R   0.577445 0.999657 0.574101 0.084349
C25   C     C_R   0.735411 0.810866 0.806385 -0.100272
C26   C     C_R   0.240030 0.687011 0.795444 -0.091686
C27   C     C_R   0.723137 0.229616 0.237596 -0.086332
C28   C     C_R   0.766299 0.676670 0.199917 -0.244089
C29   C     C_R   0.235494 0.310809 0.806307 -0.101157
C30   C     C_R   0.776311 0.180115 0.831702 -0.117012
C31   C     C_R   0.201525 0.769706 0.191972 -0.138692
C32   C     C_R   0.234313 0.161842 0.157199 -0.079750
C33   C     C_R   0.769460 0.822495 0.846289 -0.142493
C34   C     C_R   0.276265 0.680026 0.831909 -0.116225
C35   C     C_R   0.075914 0.370670 0.571621 -0.201992
C36   C     C_R   0.701384 0.269411 0.192085 -0.138711
C37   C     C_R   0.734508 0.661594 0.157010 -0.081045
C38   C     C_R   0.269551 0.322407 0.846204 -0.142088
C39   C     C_R   0.080019 0.090499 0.928068 0.931362
C40   C     C_R   0.927445 0.897706 0.064134 0.922186
C41   C     C_R   0.928520 0.103343 0.062830 0.937086
C42   C     C_R   0.071993 0.897231 0.936428 0.889527
C43   C     C_R   0.580022 0.590492 0.928062 0.931358
C44   C     C_R   0.427453 0.397692 0.064126 0.922243
C45   C     C_R   0.428541 0.603362 0.062809 0.937444
C46   C     C_R   0.875505 0.626278 0.574359 -0.204060
C47   C     C_R   0.571979 0.397215 0.936441 0.889429
C48   C     C_R   0.517160 0.127724 0.606620 0.035668
C49   C     C_R   0.449494 0.873823 0.509225 0.041568
C50   C     C_R   0.421939 0.128812 0.587241 0.040052
C51   C     C_R   0.531091 0.869117 0.560674 0.038156
C52   C     C_R   0.017687 0.627045 0.604121 0.035186
C53   C     C_R   0.954669 0.376091 0.492662 0.037114
C54   C     C_R   0.922429 0.628241 0.585023 0.040381
C55   C     C_R   0.035862 0.369973 0.544835 0.041525
C56   C     C_R   0.484410 0.190657 0.628814 0.211311
C57   C     C_R   0.916044 0.382487 0.462886 -0.197705
C58   C     C_R   0.471638 0.806331 0.514673 0.169910
C59   C     C_R   0.438428 0.192536 0.613875 0.146306
C60   C     C_R   0.513362 0.804050 0.539579 0.187016
C61   C     C_R   0.984285 0.689424 0.628406 0.211806
C62   C     C_R   0.979512 0.309114 0.491116 0.169873
C63   C     C_R   0.938236 0.691453 0.613708 0.146417
C64   C     C_R   0.021245 0.306137 0.515852 0.193393
C65   C     C_R   0.452226 0.065107 0.572823 -0.009439
C66   C     C_R   0.507030 0.934930 0.558409 -0.013153
C67   C     C_R   0.498928 0.064476 0.584004 -0.020391
C68   C     C_R   0.069153 0.626235 0.601433 -0.227214
C69   C     C_R   0.464017 0.936620 0.538473 -0.015927
C70   C     C_R   0.953742 0.565127 0.567359 -0.009647
C71   C     C_R   0.010779 0.435749 0.545843 -0.015880
C72   C     C_R   0.000385 0.564389 0.578567 -0.020910
C73   C     C_R   0.967996 0.437928 0.525521 -0.013262
C74   C     C_R   0.938953 0.502450 0.536976 0.012866
C75   C     C_R   0.029226 0.499862 0.566397 0.015720
C76   C     C_R   0.436542 0.001773 0.545226 0.012588
C77   C     C_R   0.527083 0.999638 0.574233 0.015894
C78   C     C_R   0.880440 0.441755 0.487274 0.037159
C79   C     C_R   0.574023 0.870587 0.581008 -0.205388
C80   C     C_R   0.102734 0.564390 0.573846 0.040027
C81   C     C_R   0.105018 0.434428 0.564079 0.044078
C82   C     C_R   0.862839 0.566027 0.537409 0.045437
C83   C     C_R   0.378929 0.940714 0.493891 0.036515
C84   C     C_R   0.602122 0.064659 0.576360 0.039607
C85   C     C_R   0.603863 0.934448 0.569329 0.044778
C86   C     C_R   0.362308 0.066116 0.539795 0.046168
C87   C     C_R   0.829280 0.439627 0.487137 -0.179780
C88   C     C_R   0.159900 0.564191 0.546546 -0.138823
C89   C     C_R   0.160832 0.435717 0.542947 -0.191870
C90   C     C_R   0.375385 0.126967 0.575364 -0.205739
C91   C     C_R   0.818215 0.565338 0.519811 -0.197806
C92   C     C_R   0.328872 0.939285 0.489786 -0.180149
C93   C     C_R   0.659535 0.064309 0.547465 -0.138930
C94   C     C_R   0.660288 0.935720 0.544867 -0.192706
C95   C     C_R   0.318245 0.065380 0.520451 -0.197041
C96   C     C_R   0.795767 0.500677 0.514666 -0.090713
C97   C     C_R   0.189330 0.500272 0.518896 -0.119199
C98   C     C_R   0.295770 0.000675 0.515400 -0.093001
C99   C     C_R   0.688795 0.000279 0.519517 -0.118013
C100  C     C_3   0.053617 0.237100 0.501036 -0.887256
C101  C     C_R   0.413404 0.880477 0.474261 -0.195076
C102  C     C_3   0.908167 0.761459 0.622076 -0.813829
C103  C     C_3   0.958890 0.241022 0.468204 -0.831602
C104  C     C_3   0.996860 0.751731 0.673026 -0.915424
C105  C     C_3   0.541868 0.733900 0.537788 -0.878730
C106  C     C_3   0.409145 0.262769 0.619805 -0.813693
C107  C     C_3   0.447868 0.736619 0.502367 -0.837683
C108  C     C_3   0.497621 0.253875 0.671308 -0.915271
C109  C     C_2   0.735128 0.496917 0.554609 0.970406
C110  C     C_2   0.248341 0.500903 0.447927 0.989108
C111  C     C_2   0.235186 0.997092 0.554375 0.969661
C112  C     C_R   0.294179 0.723229 0.326616 0.933544
C113  C     C_R   0.568882 0.126894 0.603023 -0.227975
C114  C     C_2   0.747590 0.000775 0.447625 0.987882
C115  C     C_2   0.732316 0.125353 0.745875 0.962485
C116  C     C_2   0.184594 0.686566 0.317606 1.004965
C117  C     C_2   0.269159 0.121247 0.261557 1.060703
C118  C     C_2   0.723552 0.870960 0.759458 0.965485
C119  C     C_2   0.232300 0.625400 0.745976 0.962454
C120  C     C_2   0.684532 0.186445 0.317871 1.005294
C121  C     C_2   0.769411 0.621166 0.261393 1.059710
C122  C     C_2   0.223656 0.370928 0.759388 0.965749
C123  C     C_2   0.820590 0.125890 0.793101 0.942446
C124  C     C_R   0.713477 0.252676 0.959916 0.012999
C125  C     C_2   0.174096 0.838749 0.234439 0.960076
C126  C     C_2   0.182612 0.121283 0.209505 0.840561
C127  C     C_2   0.799110 0.891461 0.828119 0.941801
C128  C     C_2   0.320203 0.625292 0.794028 0.942644
C129  C     C_2   0.673967 0.338476 0.234497 0.959882
C130  C     C_2   0.682964 0.620700 0.209180 0.841990
C131  C     C_2   0.299110 0.391426 0.828258 0.940857
C132  C     C_R   0.274641 0.725049 0.049824 0.027700
C133  C     C_R   0.290298 0.245110 0.035357 0.023742
C134  C     C_R   0.730212 0.717251 0.943080 0.030731
C135  C     C_R   0.213578 0.752907 0.959850 0.012852
C136  C     C_R   0.774522 0.224788 0.049921 0.027616
C137  C     C_R   0.790299 0.745115 0.035353 0.024069
C138  C     C_R   0.230225 0.217234 0.943068 0.030419
C139  C     C_R   0.764620 0.217205 0.913227 -0.046566
C140  C     C_R   0.300229 0.263788 0.322469 0.927385
C141  C     C_R   0.221763 0.755754 0.098505 -0.039058
C142  C     C_R   0.248109 0.193269 0.071193 -0.011995
C143  C     C_R   0.769080 0.773117 0.912055 -0.046076
C144  C     C_R   0.264679 0.717351 0.913219 -0.046828
C145  C     C_R   0.721625 0.255443 0.098613 -0.038819
C146  C     C_R   0.748190 0.693158 0.071104 -0.012064
C147  C     C_R   0.269141 0.273036 0.911984 -0.045418
C148  C     C_R   0.798138 0.212798 0.955797 0.105409
C149  C     C_R   0.191339 0.770434 0.052746 0.097210
C150  C     C_R   0.223497 0.173045 0.016928 0.065548
C151  C     C_R   0.700296 0.734847 0.677399 0.855515
C152  C     C_R   0.804452 0.778583 0.950959 0.084571
C153  C     C_R   0.298223 0.712982 0.955733 0.106167
C154  C     C_R   0.691212 0.270137 0.052837 0.097183
C155  C     C_R   0.723559 0.672973 0.016838 0.065581
C156  C     C_R   0.304506 0.278494 0.950901 0.084597
C157  C     C_R   0.634902 0.309715 0.957166 0.078264
C158  C     C_R   0.358796 0.681890 0.047611 0.096282
C159  C     C_R   0.364709 0.310560 0.041947 0.087227
C160  C     C_R   0.663123 0.644492 0.925123 0.066893
C161  C     C_R   0.134973 0.809838 0.957121 0.078352
C162  C     C_R   0.200655 0.765818 0.677079 0.886601
C163  C     C_R   0.858710 0.181763 0.047701 0.095876
C164  C     C_R   0.864687 0.810611 0.041963 0.087156
C165  C     C_R   0.163114 0.144500 0.925156 0.066777
C166  C     C_R   0.611947 0.338851 0.904668 -0.131426
C167  C     C_R   0.385013 0.656769 0.097277 -0.141931
C168  C     C_R   0.388130 0.338271 0.094576 -0.135635
C169  C     C_R   0.627085 0.637092 0.888466 -0.124202
C170  C     C_R   0.111984 0.838902 0.904644 -0.131495
C171  C     C_R   0.884956 0.156694 0.097337 -0.141583
C172  C     C_R   0.888118 0.838301 0.094586 -0.135536
C173  C     C_R   0.794151 0.223181 0.326645 0.931655
C174  C     C_R   0.127088 0.137092 0.888475 -0.124678
C175  C     C_R   0.632188 0.318598 0.815884 -0.269281
C176  C     C_R   0.363413 0.673040 0.187264 -0.271097
C177  C     C_R   0.369140 0.315427 0.182385 -0.271062
C178  C     C_R   0.635380 0.675712 0.813523 -0.265063
C179  C     C_R   0.132216 0.818624 0.815873 -0.269365
C180  C     C_R   0.863358 0.172958 0.187319 -0.272806
C181  C     C_R   0.869134 0.815454 0.182391 -0.271180
C182  C     C_R   0.135398 0.175699 0.813516 -0.264656
C183  C     C_R   0.676040 0.272396 0.775429 -0.074143
C184  C     C_R   0.800234 0.763781 0.322465 0.927422
C185  C     C_R   0.312033 0.702089 0.233940 -0.059180
C186  C     C_R   0.326215 0.267676 0.222648 -0.098087
C187  C     C_R   0.677692 0.723677 0.775188 -0.057312
C188  C     C_R   0.176077 0.772436 0.775419 -0.074151
C189  C     C_R   0.811968 0.201976 0.234006 -0.058670
C190  C     C_R   0.826229 0.767678 0.222636 -0.098140
C191  C     C_R   0.177715 0.223657 0.775174 -0.057736
C192  C     C_R   0.700945 0.243589 0.826070 -0.002783
C193  C     C_R   0.279630 0.713081 0.190432 -0.018202
C194  C     C_R   0.303495 0.235611 0.170005 0.024014
C195  C     C_R   0.200302 0.234839 0.677396 0.857606
C196  C     C_R   0.704721 0.746499 0.825082 -0.006035
C197  C     C_R   0.201015 0.743683 0.826045 -0.002968
C198  C     C_R   0.779534 0.212890 0.190530 -0.017765
C199  C     C_R   0.803541 0.735585 0.169961 0.024065
C200  C     C_R   0.204764 0.246465 0.825042 -0.005966
C201  C     C_R   0.691656 0.129318 0.533136 0.917327
C202  C     C_R   0.305423 0.872512 0.477225 0.900098
C203  C     C_R   0.296483 0.130480 0.501529 0.909104
C204  C     C_R   0.692354 0.870924 0.530660 0.900315
C205  C     C_R   0.191714 0.629295 0.533007 0.917389
C206  C     C_R   0.894047 0.503407 0.520765 0.076738
C207  C     C_R   0.805609 0.372513 0.476309 0.896744
C208  C     C_R   0.796384 0.630512 0.501610 0.909105
C209  C     C_R   0.192567 0.370972 0.529937 0.903535
C210  C     C_R   0.683572 0.269347 0.913907 0.065451
C211  C     C_R   0.304799 0.708133 0.095576 0.068669
C212  C     C_R   0.319087 0.264040 0.082972 0.084854
C213  C     C_R   0.699331 0.703184 0.898004 0.063422
C214  C     C_R   0.183658 0.769505 0.913855 0.065392
C215  C     C_R   0.804691 0.207924 0.095675 0.068617
C216  C     C_R   0.819089 0.764055 0.082966 0.084854
H1    H     H_    0.084422 0.321524 0.596084 0.186215
H2    H     H_    0.385948 0.659714 0.222514 0.189831
H3    H     H_    0.385926 0.339059 0.222163 0.190562
H4    H     H_    0.611051 0.664586 0.780872 0.188411
H5    H     H_    0.115041 0.841951 0.776272 0.195859
H6    H     H_    0.885916 0.159679 0.222546 0.189267
H7    H     H_    0.885912 0.839094 0.222176 0.190471
H8    H     H_    0.111069 0.164572 0.780865 0.189165
H9    H     H_    0.567928 0.333671 0.091800 0.170247
H10   H     H_    0.427745 0.672058 0.911789 0.156248
H11   H     H_    0.426842 0.345710 0.906462 0.168813
H12   H     H_    0.847112 0.670541 0.599192 0.178372
H13   H     H_    0.646076 0.541928 0.996331 0.179955
H14   H     H_    0.068002 0.833769 0.091777 0.170345
H15   H     H_    0.927688 0.172108 0.911901 0.156848
H16   H     H_    0.926786 0.845806 0.906471 0.168932
H17   H     H_    0.146003 0.041988 0.996510 0.180114
H18   H     H_    0.613548 0.296435 0.171841 0.154410
H19   H     H_    0.377610 0.702740 0.834533 0.146966
H20   H     H_    0.374604 0.323717 0.833743 0.148210
H21   H     H_    0.698951 0.564063 0.068438 0.187544
H22   H     H_    0.113688 0.796745 0.171767 0.154493
H23   H     H_    0.914262 0.340789 0.420541 0.188436
H24   H     H_    0.877591 0.202868 0.834658 0.147683
H25   H     H_    0.874510 0.823918 0.833843 0.147932
H26   H     H_    0.198765 0.064233 0.068799 0.187949
H27   H     H_    0.030331 0.199173 0.557869 0.236969
H28   H     H_    0.062096 0.211846 0.436088 0.266293
H29   H     H_    0.094723 0.245513 0.493533 0.245150
H30   H     H_    0.931672 0.809761 0.620262 0.262526
H31   H     H_    0.901293 0.768677 0.563114 0.238417
H32   H     H_    0.868265 0.761002 0.685464 0.245102
H33   H     H_    0.972170 0.190963 0.487428 0.257832
H34   H     H_    0.083353 0.674151 0.618816 0.190125
H35   H     H_    0.913509 0.239490 0.506487 0.253507
H36   H     H_    0.972923 0.239590 0.394454 0.236174
H37   H     H_    0.960911 0.786053 0.713584 0.240568
H38   H     H_    0.008582 0.731514 0.723132 0.234609
H39   H     H_    0.030568 0.784755 0.620931 0.252509
H40   H     H_    0.532509 0.719124 0.607603 0.226112
H41   H     H_    0.530509 0.687988 0.509024 0.253982
H42   H     H_    0.586754 0.740151 0.494418 0.247778
H43   H     H_    0.432657 0.311015 0.618118 0.262476
H44   H     H_    0.403246 0.269263 0.559764 0.237707
H45   H     H_    0.584864 0.821477 0.601980 0.189893
H46   H     H_    0.368794 0.263147 0.682323 0.246282
H47   H     H_    0.440305 0.698579 0.558058 0.272998
H48   H     H_    0.407304 0.743073 0.506897 0.248496
H49   H     H_    0.476507 0.712223 0.436151 0.244603
H50   H     H_    0.461693 0.288216 0.712033 0.240355
H51   H     H_    0.510062 0.234793 0.720970 0.233995
H52   H     H_    0.530956 0.286553 0.617952 0.253323
H53   H     H_    0.669896 0.495654 0.534067 0.327088
H54   H     H_    0.327377 0.500876 0.418395 0.334684
H55   H     H_    0.170467 0.995967 0.532458 0.327493
H56   H     H_    0.347687 0.171983 0.598059 0.179922
H57   H     H_    0.826924 0.000796 0.416373 0.334746
H58   H     H_    0.765739 0.048913 0.649958 0.385931
H59   H     H_    0.106788 0.668848 0.414984 0.344987
H60   H     H_    0.190050 0.131471 0.358764 0.294268
H61   H     H_    0.666427 0.926306 0.744310 0.348563
H62   H     H_    0.265673 0.549079 0.649904 0.386228
H63   H     H_    0.606790 0.168948 0.415659 0.345016
H64   H     H_    0.690274 0.631120 0.358555 0.294642
H65   H     H_    0.166552 0.426341 0.744260 0.348705
H66   H     H_    0.860540 0.047606 0.819792 0.333575
H67   H     H_    0.413757 0.839027 0.429843 0.188223
H68   H     H_    0.133317 0.897102 0.348570 0.340442
H69   H     H_    0.145783 0.027922 0.268222 0.357297
H70   H     H_    0.859110 0.954794 0.735549 0.354911
H71   H     H_    0.359708 0.547094 0.821860 0.334318
H72   H     H_    0.633217 0.396906 0.348571 0.340217
H73   H     H_    0.646486 0.527115 0.267644 0.357733
H74   H     H_    0.359022 0.455014 0.735942 0.355040
H75   H     H_    0.583602 0.175214 0.618529 0.190924
H76   H     H_    0.615038 0.341967 0.776268 0.195732
O1    O     O_R   0.746490 0.236330 0.638080 -0.625767
O2    O     O_R   0.325830 0.813840 0.483730 -0.651255
O3    O     O_R   0.325830 0.186160 0.483730 -0.638346
O4    O     O_R   0.674170 0.813840 0.516270 -0.649301
O5    O     O_R   0.174170 0.686160 0.516270 -0.634321
O6    O     O_R   0.825830 0.313840 0.483730 -0.647245
O7    O     O_R   0.825830 0.686160 0.483730 -0.637617
O8    O     O_R   0.174170 0.313840 0.516270 -0.653588
O9    O     O_R   0.739960 0.127620 0.525000 -0.596260
O10   O     O_R   0.260040 0.872380 0.475000 -0.578145
O11   O     O_R   0.260040 0.127620 0.475000 -0.551786
O12   O     O_R   0.253510 0.763670 0.361920 -0.616093
O13   O     O_R   0.739960 0.872380 0.525000 -0.573058
O14   O     O_R   0.239960 0.627620 0.525000 -0.597107
O15   O     O_R   0.760040 0.372380 0.475000 -0.578607
O16   O     O_R   0.760040 0.627620 0.475000 -0.552260
O17   O     O_R   0.239960 0.372380 0.525000 -0.573697
O18   O     O_R   0.680700 0.294870 0.629350 -0.635328
O19   O     O_R   0.319300 0.705130 0.370650 -0.630185
O20   O     O_R   0.319300 0.294870 0.370650 -0.612751
O21   O     O_R   0.680700 0.705130 0.629350 -0.640792
O22   O     O_R   0.180700 0.794870 0.629350 -0.635351
O23   O     O_R   0.253510 0.236330 0.361920 -0.643374
O24   O     O_R   0.819300 0.205130 0.370650 -0.630957
O25   O     O_R   0.819300 0.794870 0.370650 -0.612617
O26   O     O_R   0.180700 0.205130 0.629350 -0.640030
O27   O     O_R   0.062020 0.072840 0.007170 -0.623991
O28   O     O_R   0.937980 0.927160 0.992830 -0.623233
O29   O     O_R   0.937980 0.072840 0.992830 -0.613459
O30   O     O_R   0.062020 0.927160 0.007170 -0.640429
O31   O     O_R   0.562020 0.572840 0.007170 -0.623606
O32   O     O_R   0.437980 0.427160 0.992830 -0.623276
O33   O     O_R   0.437980 0.572840 0.992830 -0.613730
O34   O     O_R   0.746490 0.763670 0.638080 -0.645881
O35   O     O_R   0.562020 0.427160 0.007170 -0.640405
O36   O     O_R   0.947860 0.073950 0.109290 -0.603204
O37   O     O_R   0.052140 0.926050 0.890710 -0.620777
O38   O     O_R   0.052140 0.073950 0.890710 -0.624938
O39   O     O_R   0.947860 0.926050 0.109290 -0.617530
O40   O     O_R   0.447860 0.573950 0.109290 -0.602673
O41   O     O_R   0.552140 0.426050 0.890710 -0.620884
O42   O     O_R   0.552140 0.573950 0.890710 -0.625429
O43   O     O_R   0.447860 0.426050 0.109290 -0.617367
O44   O     O_2   0.706373 0.494435 0.636898 -0.661097
O45   O     O_R   0.246490 0.736330 0.638080 -0.626033
O46   O     O_R   0.711278 0.497832 0.498538 -0.699482
O47   O     O_2   0.260496 0.501489 0.367966 -0.598834
O48   O     O_R   0.289303 0.500412 0.472747 -0.753052
O49   O     O_2   0.206012 0.994587 0.636568 -0.660717
O50   O     O_R   0.211865 0.998065 0.497528 -0.698662
O51   O     O_2   0.759121 0.001043 0.367947 -0.597844
O52   O     O_R   0.789064 0.000467 0.471264 -0.752844
O53   O     O_2   0.686047 0.107964 0.763412 -0.646149
O54   O     O_R   0.777027 0.088394 0.678617 -0.730528
O55   O     O_2   0.200759 0.632918 0.339457 -0.623871
O56   O     O_R   0.753510 0.263670 0.361920 -0.616269
O57   O     O_R   0.128993 0.703917 0.364181 -0.771480
O58   O     O_2   0.313292 0.094202 0.241887 -0.571711
O59   O     O_R   0.223161 0.100071 0.342112 -0.686723
O60   O     O_2   0.760634 0.906129 0.700266 -0.567204
O61   O     O_R   0.669434 0.885478 0.781606 -0.808153
O62   O     O_2   0.186008 0.607876 0.763795 -0.646231
O63   O     O_R   0.276995 0.588640 0.678411 -0.729519
O64   O     O_2   0.700711 0.132796 0.339688 -0.623392
O65   O     O_R   0.628951 0.203890 0.364657 -0.771291
O66   O     O_2   0.813595 0.594285 0.241728 -0.572121
O67   O     O_R   0.753510 0.736330 0.361920 -0.642915
O68   O     O_R   0.723448 0.599855 0.341915 -0.686487
O69   O     O_2   0.260752 0.406078 0.700193 -0.566737
O70   O     O_R   0.169542 0.385496 0.781551 -0.807842
O71   O     O_2   0.855642 0.129601 0.713406 -0.606266
O72   O     O_R   0.824283 0.073836 0.849669 -0.742541
O73   O     O_2   0.176183 0.889773 0.186947 -0.618229
O74   O     O_R   0.149259 0.847319 0.328345 -0.756953
O75   O     O_2   0.138977 0.150809 0.230820 -0.616114
O76   O     O_R   0.183751 0.049318 0.232637 -0.757662
O77   O     O_2   0.787580 0.933725 0.889907 -0.557901
O78   O     O_R   0.246490 0.263670 0.638080 -0.646029
O79   O     O_R   0.841282 0.906553 0.740724 -0.785786
O80   O     O_2   0.355282 0.628250 0.714316 -0.616432
O81   O     O_R   0.323587 0.573653 0.851322 -0.741822
O82   O     O_2   0.676053 0.389465 0.186960 -0.618670
O83   O     O_R   0.649156 0.347116 0.328390 -0.756930
O84   O     O_2   0.639218 0.649940 0.230589 -0.609894
O85   O     O_R   0.684376 0.548743 0.232085 -0.757818
O86   O     O_2   0.287508 0.433546 0.890208 -0.558524
O87   O     O_R   0.341272 0.406740 0.740929 -0.786039
O88   O     O_R   0.674170 0.186160 0.516270 -0.635014
Zn1   Zn    Zn3+2 0.792340 0.208750 0.507670 1.037314
Zn2   Zn    Zn3+2 0.494040 0.500000 0.919480 0.960699
Zn3   Zn    Zn3+2 0.005960 0.000000 0.080520 0.974789
Zn4   Zn    Zn3+2 0.994040 0.000000 0.919480 0.961606
Zn5   Zn    Zn3+2 0.207660 0.791250 0.492330 1.055399
Zn6   Zn    Zn3+2 0.207660 0.208750 0.492330 0.990761
Zn7   Zn    Zn3+2 0.792340 0.791250 0.507670 1.034972
Zn8   Zn    Zn3+2 0.292340 0.708750 0.507670 1.034856
Zn9   Zn    Zn3+2 0.707660 0.291250 0.492330 1.055042
Zn10  Zn    Zn3+2 0.707660 0.708750 0.492330 0.993222
Zn11  Zn    Zn3+2 0.292340 0.291250 0.507670 1.034258
Zn12  Zn    Zn3+2 0.505960 0.500000 0.080520 0.975724

loop_
_geom_bond_atom_site_label_1
_geom_bond_atom_site_label_2
_ccdc_geom_bond_type
C115  O54   S    
C190  C199  A    
H69   O76   S    
C102  H30   S    
C91   C208  S    
C179  H5    S    
C175  H76   S    
O24   Zn1   S    
O67   Zn10  S    
C129  O82   D    
C72   C75   A    
C193  C211  A    
C54   C63   A    
C58   C60   A    
O30   Zn3   S    
C44   C168  S    
C61   C63   A    
C26   C197  A    
H71   O81   S    
C62   C64   A    
C100  H29   S    
C42   C170  S    
C134  C143  A    
C50   C90   A    
O38   Zn4   S    
O28   Zn4   S    
C107  H49   S    
O78   Zn11  S    
C180  H6    S    
C4    C12   A    
C93   C201  S    
C24   C85   A    
C32   C142  A    
C88   C97   A    
H59   O57   S    
C49   C69   A    
C183  C192  A    
C27   C198  A    
C39   C174  S    
C123  O71   D    
C158  C167  A    
O1    Zn1   S    
C11   C20   A    
C59   C106  S    
O11   Zn6   S    
H58   O54   S    
C137  C146  A    
C61   C104  S    
C86   C90   A    
C71   C73   A    
C173  O56   A    
C21   C192  A    
C179  C188  A    
C203  O11   A    
C164  C216  A    
C177  C186  A    
C51   C66   A    
C151  C187  S    
C52   C72   A    
C162  O45   A    
C181  C190  A    
C134  C155  A    
C54   C70   A    
C90   H56   S    
C6    H11   S    
C16   C155  A    
C10   H16   S    
C3    C138  A    
C4    H9    S    
C108  H50   S    
C104  H39   S    
C192  C210  A    
O14   Zn8   S    
C126  O75   D    
H60   O59   S    
C202  O10   A    
C207  O15   A    
C50   C59   A    
O42   Zn2   S    
C79   C85   A    
O20   Zn11  S    
C175  C183  A    
C158  C211  A    
C66   C77   A    
C130  O84   D    
C57   C78   A    
C12   C154  A    
C113  H75   S    
C96   C109  S    
C8    C17   A    
C56   C59   A    
C52   C61   A    
C103  H35   S    
C80   C88   A    
O5    Zn5   S    
C23   C194  A    
C112  O12   A    
C84   C93   A    
C48   C67   A    
C86   C95   A    
C19   H25   S    
C194  C212  A    
C109  O46   S    
C24   C77   A    
C125  O73   D    
C5    C158  A    
C11   C165  A    
C2    C81   A    
C203  O3    A    
O27   Zn3   S    
O41   Zn2   S    
C184  O67   A    
C78   C87   A    
C11   H17   S    
C1    O18   A    
O23   Zn6   S    
C105  H42   S    
C181  H7    S    
H57   O52   S    
C124  C139  A    
C67   C77   A    
C174  C182  A    
C99   C114  S    
O40   Zn12  S    
C41   C171  S    
C133  C142  A    
C134  C213  A    
O88   Zn9   S    
C207  O6    A    
C180  C189  A    
C44   O32   A    
C95   C203  S    
C106  H46   S    
C69   C76   A    
C58   C107  S    
C85   C94   A    
C32   C126  S    
C162  O22   A    
C56   C108  S    
O6    Zn1   S    
C46   C82   A    
C172  C181  A    
O9    Zn1   S    
C15   H20   S    
C100  H28   S    
C40   O39   A    
C22   C116  S    
C91   C96   A    
C55   C64   A    
C116  O55   D    
H73   O85   S    
C132  C211  A    
C177  H3    S    
C63   C102  S    
C35   H1    S    
C14   H19   S    
C18   H24   S    
C19   C152  A    
H70   O79   S    
C128  O80   D    
C139  C148  A    
C28   C199  A    
C103  H33   S    
C191  C200  A    
C137  C152  A    
C204  O13   A    
C112  C185  S    
C42   O30   A    
H54   O48   S    
C89   C209  S    
C165  C174  A    
C140  O23   A    
H53   O46   S    
C104  H37   S    
C111  O49   D    
H64   O68   S    
C31   C141  A    
C70   C74   A    
H61   O61   S    
C4    C157  A    
C3    C200  A    
C117  O58   D    
C173  O24   A    
C57   H23   S    
C39   O27   A    
C151  O34   A    
C136  C148  A    
C25   C196  A    
C145  C154  A    
C112  O19   A    
C45   O40   A    
C118  O61   S    
C106  H43   S    
C184  C190  S    
O12   Zn5   S    
C164  C172  A    
C94   C204  S    
C31   C125  S    
O32   Zn2   S    
C82   C206  A    
C92   C202  S    
C3    C165  A    
C68   H34   S    
C132  C141  A    
C115  O53   D    
C30   C139  A    
C83   C101  A    
C186  C194  A    
C102  H31   S    
C205  O14   A    
C23   C117  S    
O37   Zn4   S    
C182  H8    S    
C105  H40   S    
C1    O1    A    
C170  C179  A    
C140  C186  S    
C81   C89   A    
O15   Zn9   S    
H63   O65   S    
C124  C210  A    
C28   C37   A    
C128  O81   S    
O34   Zn7   S    
C20   C150  A    
C204  O4    A    
C171  C180  A    
C50   C65   A    
C51   C79   A    
C117  O59   S    
C197  C214  A    
C45   O33   A    
C9    C18   A    
C30   C123  S    
C34   C128  S    
O19   Zn8   S    
C116  O57   S    
C151  O21   A    
C41   O29   A    
C51   C60   A    
C114  O51   D    
C25   C33   A    
C161  C214  A    
C187  C196  A    
C133  C156  A    
C73   C74   A    
O26   Zn6   S    
O56   Zn9   S    
C88   C205  S    
C21   C115  S    
C25   C118  S    
C43   C169  S    
C176  C185  A    
C27   C120  S    
C33   C143  A    
C20   H26   S    
O43   Zn12  S    
C34   C144  A    
C166  C175  A    
H74   O87   S    
C65   C76   A    
C41   O36   A    
C178  H4    S    
C49   C101  A    
C135  C214  A    
C47   O41   A    
O8    Zn6   S    
C168  C177  A    
C202  O2    A    
C122  O69   D    
C127  O79   S    
C9    C163  A    
C42   O37   A    
C163  C215  A    
C44   O43   A    
C146  C155  A    
C65   C67   A    
H65   O70   S    
C160  C169  A    
C22   C193  A    
C107  H48   S    
C98   C111  S    
C209  O17   A    
C37   C146  A    
C163  C171  A    
C93   C99   A    
C110  O47   D    
C40   O28   A    
C136  C215  A    
C126  O76   S    
C17   H22   S    
C176  H2    S    
O10   Zn5   S    
C198  C215  A    
C195  O78   A    
C1    C183  S    
C53   C73   A    
C95   C98   A    
C101  H67   S    
O36   Zn3   S    
C92   C98   A    
C205  O5    A    
C129  O83   S    
O35   Zn12  S    
C47   C166  S    
C53   C57   A    
C7    C160  A    
O4    Zn10  S    
C159  C212  A    
O2    Zn8   S    
C78   C206  A    
O13   Zn7   S    
C131  O86   D    
C10   C19   A    
C29   C200  A    
C46   C54   A    
C147  C156  A    
C5    C14   A    
C178  C187  A    
C7    C16   A    
O33   Zn2   S    
C137  C216  A    
C79   H45   S    
C182  C191  A    
H72   O83   S    
C118  O60   D    
C123  O72   S    
C40   C172  S    
C7    H13   S    
C39   O38   A    
C105  H41   S    
C119  O62   D    
O45   Zn8   S    
C109  O44   D    
C27   C36   A    
C21   C30   A    
C13   C83   A    
C127  O77   D    
C23   C32   A    
C142  C150  A    
O7    Zn7   S    
O31   Zn12  S    
C36   C129  S    
C162  C188  S    
C140  O20   A    
C188  C197  A    
C38   C147  A    
C82   C91   A    
C64   C100  S    
C46   H12   S    
C121  O66   D    
C208  O7    A    
C48   C113  A    
C189  C198  A    
C68   C80   A    
C84   C113  A    
C97   C110  S    
C124  C154  A    
O16   Zn10  S    
C120  O64   D    
O17   Zn11  S    
C33   C127  S    
C6    C159  A    
C35   C81   A    
C195  O26   A    
C141  C149  A    
O3    Zn11  S    
C138  C150  A    
C12   H18   S    
C83   C92   A    
C47   O35   A    
C103  H36   S    
C208  O16   A    
C18   C148  A    
C8    C161  A    
C66   C69   A    
O22   Zn5   S    
C104  H38   S    
C37   C130  S    
C108  H52   S    
C209  O8    A    
C144  C153  A    
C184  O25   A    
C6    C15   A    
C8    H14   S    
C159  C168  A    
C26   C34   A    
C125  O74   S    
C13   C86   A    
C55   C71   A    
C136  C145  A    
C52   C68   A    
C157  C210  A    
C2    C75   A    
C29   C122  S    
C106  H44   S    
C191  C195  S    
C201  O9    A    
C22   C31   A    
C35   C55   A    
C199  C216  A    
O29   Zn4   S    
C102  H32   S    
C26   C119  S    
C43   O31   A    
H66   O72   S    
C28   C121  S    
H68   O74   S    
C135  C149  A    
O18   Zn9   S    
C49   C58   A    
C89   C97   A    
C120  O65   S    
C29   C38   A    
C108  H51   S    
C53   C62   A    
C36   C145  A    
C13   C76   A    
C138  C147  A    
C87   C96   A    
C132  C153  A    
C121  O68   S    
C43   O42   A    
C45   C167  S    
C87   C207  S    
C15   C156  A    
C100  H27   S    
H55   O50   S    
C161  C170  A    
C135  C144  A    
C131  O87   S    
C16   H21   S    
C14   C153  A    
O21   Zn10  S    
C114  O52   S    
C169  C178  A    
C62   C103  S    
C74   C206  A    
C48   C56   A    
C143  C152  A    
C10   C164  A    
H62   O63   S    
C17   C149  A    
C185  C193  A    
C157  C166  A    
C70   C72   A    
C111  O50   S    
C9    H15   S    
C201  O88   A    
C38   C131  S    
C24   C84   A    
C119  O63   S    
C71   C75   A    
C196  C213  A    
C94   C99   A    
C160  C213  A    
C173  C189  S    
C122  O70   S    
C5    H10   S    
O39   Zn3   S    
C2    C80   A    
O25   Zn7   S    
C130  O85   S    
C133  C212  A    
C107  H47   S    
C110  O48   S    
C60   C105  S    
C167  C176  A    
