data_str_m3_o40_o41_f0_fof.sym.137
_audit_creation_date              2012-12-10T16:37:49-0500
_audit_creation_method            fapswitch 2.2
_symmetry_space_group_name_H-M    P1
_symmetry_Int_Tables_number       1
_space_group_crystal_system       triclinic
_cell_length_a                    28.121638
_cell_length_b                    18.639174
_cell_length_c                    16.773174
_cell_angle_alpha                 91.27624
_cell_angle_beta                  61.233534
_cell_angle_gamma                 90.423477
_cell_volume                      7704.90721944

loop_
_atom_site_label
_atom_site_type_symbol
_atom_type_description
_atom_site_fract_x
_atom_site_fract_y
_atom_site_fract_z
_atom_type_partial_charge
C1    C     C_R   0.699456 0.262855 0.677428 0.949562
C2    C     C_R   0.300857 0.737848 0.322650 0.917091
C3    C     C_R   0.300346 0.263654 0.321794 0.895572
C4    C     C_R   0.699962 0.736448 0.677947 0.913506
C5    C     C_R   0.199456 0.762855 0.677428 0.949573
C6    C     C_R   0.800857 0.237848 0.322650 0.917107
C7    C     C_R   0.800346 0.763653 0.321793 0.895609
C8    C     C_R   0.199962 0.236447 0.677947 0.913511
C9    C     C_R   0.907700 0.506773 0.473062 0.050423
C10   C     C_R   0.097933 0.497728 0.503152 0.053238
C11   C     C_R   0.407698 0.006774 0.473070 0.050427
C12   C     C_R   0.597932 0.997728 0.503156 0.053232
C13   C     C_R   0.089177 0.369021 0.510042 -0.084043
C14   C     C_R   0.933318 0.625023 0.404730 -0.047330
C15   C     C_R   0.877689 0.396603 0.558682 -0.096587
C16   C     C_R   0.126649 0.611463 0.430628 -0.085699
C17   C     C_R   0.589178 0.869021 0.510041 -0.084034
C18   C     C_R   0.433314 0.125027 0.404747 -0.047292
C19   C     C_R   0.377690 0.896601 0.558683 -0.096589
C20   C     C_R   0.626646 0.111465 0.430636 -0.085730
C21   C     C_R   0.718065 0.263507 0.957691 -0.001270
C22   C     C_R   0.284656 0.742312 0.040676 0.014217
C23   C     C_R   0.294680 0.242159 0.028014 0.019725
C24   C     C_R   0.733602 0.713499 0.937248 0.024708
C25   C     C_R   0.218067 0.763509 0.957690 -0.001270
C26   C     C_R   0.784655 0.242309 0.040677 0.014224
C27   C     C_R   0.794681 0.742154 0.028011 0.019723
C28   C     C_R   0.233602 0.213501 0.937249 0.024707
C29   C     C_R   0.764082 0.218053 0.915487 0.025010
C30   C     C_R   0.239547 0.789296 0.081882 0.049459
C31   C     C_R   0.253819 0.189361 0.061123 -0.005682
C32   C     C_R   0.772656 0.768433 0.907168 0.046250
C33   C     C_R   0.264083 0.718055 0.915486 0.025004
C34   C     C_R   0.739545 0.289292 0.081885 0.049473
C35   C     C_R   0.753821 0.689356 0.061120 -0.005682
C36   C     C_R   0.272656 0.268435 0.907168 0.046248
C37   C     C_R   0.800053 0.211813 0.953252 0.024372
C38   C     C_R   0.203243 0.795826 0.044476 0.022944
C39   C     C_R   0.228929 0.167730 0.007136 0.022740
C40   C     C_R   0.809103 0.774154 0.943463 0.025254
C41   C     C_R   0.300054 0.711814 0.953251 0.024374
C42   C     C_R   0.703241 0.295822 0.044478 0.022944
C43   C     C_R   0.728929 0.667726 0.007133 0.022738
C44   C     C_R   0.309102 0.274157 0.943464 0.025251
C45   C     C_R   0.639509 0.318828 0.954747 0.079358
C46   C     C_R   0.361958 0.683558 0.044373 0.069554
C47   C     C_R   0.366551 0.309275 0.039223 0.071150
C48   C     C_R   0.662880 0.646346 0.922393 0.055419
C49   C     C_R   0.139510 0.818830 0.954746 0.079359
C50   C     C_R   0.861957 0.183556 0.044373 0.069551
C51   C     C_R   0.866551 0.809273 0.039222 0.071157
C52   C     C_R   0.162881 0.146345 0.922395 0.055423
C53   C     C_R   0.611029 0.337117 0.905796 -0.181393
C54   C     C_R   0.389603 0.663619 0.094120 -0.205571
C55   C     C_R   0.390703 0.335451 0.092021 -0.188672
C56   C     C_R   0.623955 0.643469 0.890422 -0.187070
C57   C     C_R   0.111030 0.837118 0.905796 -0.181390
C58   C     C_R   0.889603 0.163618 0.094120 -0.205571
C59   C     C_R   0.890703 0.835450 0.092021 -0.188682
C60   C     C_R   0.123958 0.143465 0.890421 -0.187070
C61   C     C_R   0.624252 0.303312 0.823045 -0.122148
C62   C     C_R   0.376210 0.696922 0.177369 -0.130331
C63   C     C_R   0.375064 0.308059 0.177742 -0.075288
C64   C     C_R   0.629215 0.688621 0.820888 -0.125158
C65   C     C_R   0.124253 0.803312 0.823045 -0.122154
C66   C     C_R   0.876210 0.196921 0.177369 -0.130328
C67   C     C_R   0.875065 0.808056 0.177740 -0.075299
C68   C     C_R   0.129218 0.188616 0.820886 -0.125168
C69   C     C_R   0.672764 0.265528 0.778102 -0.132147
C70   C     C_R   0.328172 0.735791 0.221864 -0.170284
C71   C     C_R   0.328193 0.266102 0.220439 -0.190502
C72   C     C_R   0.675642 0.729711 0.777730 -0.138065
C73   C     C_R   0.172765 0.765529 0.778102 -0.132144
C74   C     C_R   0.828172 0.235790 0.221864 -0.170286
C75   C     C_R   0.828193 0.766100 0.220438 -0.190486
C76   C     C_R   0.175644 0.229708 0.777729 -0.138071
C77   C     C_R   0.700089 0.243064 0.827625 0.009806
C78   C     C_R   0.301764 0.759838 0.171712 0.044776
C79   C     C_R   0.305134 0.235702 0.166474 -0.049028
C80   C     C_R   0.705245 0.747802 0.824968 0.027461
C81   C     C_R   0.200090 0.743065 0.827625 0.009810
C82   C     C_R   0.801763 0.259837 0.171713 0.044769
C83   C     C_R   0.805135 0.735698 0.166472 -0.049031
C84   C     C_R   0.205247 0.247800 0.824967 0.027466
C85   C     C_R   0.694758 0.127914 0.523040 0.900757
C86   C     C_R   0.305643 0.872519 0.475009 0.925020
C87   C     C_R   0.309482 0.130003 0.461306 0.870474
C88   C     C_R   0.692348 0.870860 0.530229 0.908846
C89   C     C_R   0.194758 0.627914 0.523038 0.900719
C90   C     C_R   0.805643 0.372519 0.475009 0.925020
C91   C     C_R   0.809482 0.630003 0.461306 0.870530
C92   C     C_R   0.192348 0.370860 0.530229 0.908850
C93   C     C_R   0.686188 0.275652 0.913022 -0.017893
C94   C     C_R   0.315829 0.728019 0.085945 -0.016624
C95   C     C_R   0.321860 0.262660 0.078394 0.041082
C96   C     C_R   0.700285 0.703017 0.895478 -0.005870
C97   C     C_R   0.186190 0.775654 0.913021 -0.017892
C98   C     C_R   0.815827 0.228017 0.085946 -0.016612
C99   C     C_R   0.821861 0.762657 0.078392 0.041081
C100  C     C_R   0.200286 0.203016 0.895479 -0.005871
C101  C     C_R   0.619852 0.336413 0.047364 -0.176136
C102  C     C_R   0.382398 0.667604 0.950903 -0.185925
C103  C     C_R   0.388568 0.323174 0.945573 -0.199911
C104  C     C_R   0.667104 0.593294 0.977415 -0.198122
C105  C     C_R   0.119853 0.836415 0.047363 -0.176157
C106  C     C_R   0.882397 0.167603 0.950904 -0.185927
C107  C     C_R   0.888568 0.823173 0.945573 -0.199916
C108  C     C_R   0.167104 0.093296 0.977423 -0.198117
C109  C     C_R   0.650606 0.328155 0.091911 -0.011073
C110  C     C_R   0.352998 0.681133 0.905082 -0.048486
C111  C     C_R   0.360307 0.307859 0.897817 -0.061912
C112  C     C_R   0.700783 0.602091 0.017353 -0.046542
C113  C     C_R   0.150608 0.828159 0.091909 -0.011074
C114  C     C_R   0.852998 0.181133 0.905082 -0.048495
C115  C     C_R   0.860307 0.807857 0.897816 -0.061918
C116  C     C_R   0.200783 0.102096 0.017359 -0.046542
C117  C     C_R   0.737063 0.184754 0.799664 0.486190
C118  C     C_R   0.266248 0.819672 0.198799 0.528738
C119  C     C_R   0.267412 0.177762 0.194543 0.472753
C120  C     C_R   0.738214 0.809545 0.805935 0.489835
C121  C     C_R   0.237063 0.684755 0.799664 0.486183
C122  C     C_R   0.766246 0.319670 0.198801 0.528712
C123  C     C_R   0.767413 0.677758 0.194541 0.472744
C124  C     C_R   0.238214 0.309544 0.805935 0.489835
C125  C     C_R   0.768858 0.173814 0.842676 -0.259020
C126  C     C_R   0.236379 0.833898 0.153193 -0.247914
C127  C     C_R   0.239617 0.160069 0.146395 -0.153808
C128  C     C_R   0.771886 0.818601 0.846161 -0.270944
C129  C     C_R   0.268859 0.673815 0.842675 -0.259032
C130  C     C_R   0.736376 0.333895 0.153196 -0.247918
C131  C     C_R   0.739619 0.660064 0.146392 -0.153804
C132  C     C_R   0.271886 0.318602 0.846161 -0.270942
C133  C     C_R   0.077832 0.094963 0.930220 0.895442
C134  C     C_R   0.928543 0.896620 0.062583 0.895600
C135  C     C_R   0.928544 0.103591 0.063598 0.907774
C136  C     C_R   0.071693 0.896643 0.936258 0.876386
C137  C     C_R   0.577830 0.594966 0.930222 0.895438
C138  C     C_R   0.428543 0.396621 0.062583 0.895607
C139  C     C_R   0.428544 0.603591 0.063598 0.907768
C140  C     C_R   0.571693 0.396642 0.936258 0.876389
C141  C     C_R   0.576737 0.118288 0.429660 0.013711
C142  C     C_R   0.429442 0.888152 0.551554 0.027149
C143  C     C_R   0.480359 0.124143 0.415137 0.021086
C144  C     C_R   0.533980 0.875456 0.534432 -0.000953
C145  C     C_R   0.076743 0.618283 0.429641 0.013701
C146  C     C_R   0.929442 0.388153 0.551554 0.027148
C147  C     C_R   0.980365 0.624135 0.415111 0.021095
C148  C     C_R   0.033979 0.375457 0.534433 -0.000948
C149  C     C_R   0.564240 0.178694 0.396024 -0.130345
C150  C     C_R   0.445964 0.823815 0.573631 -0.085677
C151  C     C_R   0.518317 0.180887 0.385510 -0.155865
C152  C     C_R   0.498367 0.816788 0.562314 -0.132640
C153  C     C_R   0.064251 0.678682 0.395987 -0.130410
C154  C     C_R   0.945962 0.323817 0.573634 -0.085682
C155  C     C_R   0.018329 0.680871 0.385469 -0.155851
C156  C     C_R   0.998366 0.316790 0.562318 -0.132638
C157  C     C_R   0.490607 0.064706 0.454738 0.041331
C158  C     C_R   0.516488 0.940818 0.517634 0.031010
C159  C     C_R   0.538622 0.062078 0.461935 0.042649
C160  C     C_R   0.466598 0.945218 0.517992 0.033987
C161  C     C_R   0.990611 0.564701 0.454721 0.041335
C162  C     C_R   0.016488 0.440818 0.517631 0.031007
C163  C     C_R   0.038626 0.562075 0.461920 0.042659
C164  C     C_R   0.966599 0.445218 0.517988 0.033986
C165  C     C_R   0.954326 0.506415 0.483764 -0.031307
C166  C     C_R   0.051023 0.500273 0.493794 -0.036306
C167  C     C_R   0.454324 0.006417 0.483773 -0.031307
C168  C     C_R   0.551022 0.000273 0.493800 -0.036300
C169  C     C_R   0.871993 0.447503 0.501955 -0.007114
C170  C     C_R   0.130686 0.558418 0.486108 0.012778
C171  C     C_R   0.115894 0.432326 0.518626 0.020198
C172  C     C_R   0.895466 0.566946 0.436620 0.001492
C173  C     C_R   0.371992 0.947503 0.501958 -0.007114
C174  C     C_R   0.630685 0.058419 0.486113 0.012771
C175  C     C_R   0.615894 0.932326 0.518627 0.020191
C176  C     C_R   0.395464 0.066947 0.436629 0.001489
C177  C     C_R   0.833249 0.440795 0.470438 -0.137250
C178  C     C_R   0.167764 0.561304 0.521410 -0.122684
C179  C     C_R   0.160862 0.434202 0.537130 -0.150288
C180  C     C_R   0.844881 0.566152 0.435843 -0.162661
C181  C     C_R   0.333249 0.940795 0.470440 -0.137251
C182  C     C_R   0.667764 0.061304 0.521413 -0.122670
C183  C     C_R   0.660862 0.934202 0.537131 -0.150287
C184  C     C_R   0.344881 0.066153 0.435846 -0.162685
C185  C     C_R   0.822135 0.500560 0.432362 -0.120430
C186  C     C_R   0.178002 0.499483 0.556080 -0.137781
C187  C     C_R   0.322135 0.000560 0.432364 -0.120416
C188  C     C_R   0.678002 0.999483 0.556082 -0.137789
H1    H     H_    0.010818 0.265772 0.576065 0.196572
H2    H     H_    0.013794 0.727922 0.353425 0.194165
H3    H     H_    0.920113 0.277077 0.592880 0.211006
H4    H     H_    0.088845 0.725681 0.380921 0.215362
H5    H     H_    0.510820 0.765769 0.576059 0.196577
H6    H     H_    0.513777 0.227946 0.353483 0.194164
H7    H     H_    0.420115 0.777074 0.592874 0.210998
H8    H     H_    0.588834 0.225692 0.380969 0.215315
H9    H     H_    0.577848 0.350867 0.089893 0.191343
H10   H     H_    0.424232 0.651879 0.909016 0.201816
H11   H     H_    0.429945 0.340863 0.905979 0.198774
H12   H     H_    0.647545 0.541947 0.984087 0.197349
H13   H     H_    0.077849 0.850869 0.089893 0.191344
H14   H     H_    0.924231 0.151879 0.909016 0.201821
H15   H     H_    0.929944 0.840864 0.905980 0.198777
H16   H     H_    0.147545 0.041946 0.984099 0.197349
H17   H     H_    0.795411 0.127581 0.821674 0.144505
H18   H     H_    0.212275 0.882315 0.171833 0.158515
H19   H     H_    0.207506 0.121089 0.176377 0.169422
H20   H     H_    0.796057 0.866789 0.832113 0.143525
H21   H     H_    0.295411 0.627582 0.821674 0.144508
H22   H     H_    0.712271 0.382310 0.171837 0.158504
H23   H     H_    0.707509 0.621085 0.176374 0.169428
H24   H     H_    0.296057 0.366791 0.832111 0.143527
O1    O     O_R   0.746490 0.236330 0.638080 -0.580393
O2    O     O_R   0.253510 0.763670 0.361920 -0.564933
O3    O     O_R   0.253510 0.236330 0.361920 -0.580649
O4    O     O_R   0.746490 0.763670 0.638080 -0.579623
O5    O     O_R   0.246490 0.736330 0.638080 -0.580393
O6    O     O_R   0.753510 0.263670 0.361920 -0.564968
O7    O     O_R   0.753510 0.736330 0.361920 -0.580661
O8    O     O_R   0.246490 0.263670 0.638080 -0.579614
O9    O     O_R   0.674170 0.186160 0.516270 -0.650799
O10   O     O_R   0.325830 0.813840 0.483730 -0.647879
O11   O     O_R   0.325830 0.186160 0.483730 -0.615482
O12   O     O_R   0.674170 0.813840 0.516270 -0.640047
O13   O     O_R   0.174170 0.686160 0.516270 -0.650783
O14   O     O_R   0.825830 0.313840 0.483730 -0.647880
O15   O     O_R   0.825830 0.686160 0.483730 -0.615492
O16   O     O_R   0.174170 0.313840 0.516270 -0.640047
O17   O     O_R   0.739960 0.127620 0.525000 -0.570836
O18   O     O_R   0.260040 0.872380 0.475000 -0.575568
O19   O     O_R   0.260040 0.127620 0.475000 -0.584209
O20   O     O_R   0.739960 0.872380 0.525000 -0.574351
O21   O     O_R   0.239960 0.627620 0.525000 -0.570841
O22   O     O_R   0.760040 0.372380 0.475000 -0.575568
O23   O     O_R   0.760040 0.627620 0.475000 -0.584219
O24   O     O_R   0.239960 0.372380 0.525000 -0.574344
O25   O     O_R   0.680700 0.294870 0.629350 -0.591393
O26   O     O_R   0.319300 0.705130 0.370650 -0.596199
O27   O     O_R   0.319300 0.294870 0.370650 -0.601288
O28   O     O_R   0.680700 0.705130 0.629350 -0.597503
O29   O     O_R   0.180700 0.794870 0.629350 -0.591392
O30   O     O_R   0.819300 0.205130 0.370650 -0.596189
O31   O     O_R   0.819300 0.794870 0.370650 -0.601267
O32   O     O_R   0.180700 0.205130 0.629350 -0.597504
O33   O     O_R   0.062020 0.072840 0.007170 -0.622736
O34   O     O_R   0.937980 0.927160 0.992830 -0.624408
O35   O     O_R   0.937980 0.072840 0.992830 -0.622235
O36   O     O_R   0.062020 0.927160 0.007170 -0.636213
O37   O     O_R   0.562020 0.572840 0.007170 -0.622737
O38   O     O_R   0.437980 0.427160 0.992830 -0.624409
O39   O     O_R   0.437980 0.572840 0.992830 -0.622233
O40   O     O_R   0.562020 0.427160 0.007170 -0.636209
O41   O     O_R   0.947860 0.073950 0.109290 -0.565409
O42   O     O_R   0.052140 0.926050 0.890710 -0.579366
O43   O     O_R   0.052140 0.073950 0.890710 -0.583616
O44   O     O_R   0.947860 0.926050 0.109290 -0.578936
O45   O     O_R   0.447860 0.573950 0.109290 -0.565411
O46   O     O_R   0.552140 0.426050 0.890710 -0.579366
O47   O     O_R   0.552140 0.573950 0.890710 -0.583614
O48   O     O_R   0.447860 0.426050 0.109290 -0.578933
Zn1   Zn    Zn3+2 0.792340 0.208750 0.507670 1.092252
Zn2   Zn    Zn3+2 0.207660 0.791250 0.492330 1.103429
Zn3   Zn    Zn3+2 0.207660 0.208750 0.492330 1.110834
Zn4   Zn    Zn3+2 0.792340 0.791250 0.507670 1.102687
Zn5   Zn    Zn3+2 0.292340 0.708750 0.507670 1.092246
Zn6   Zn    Zn3+2 0.707660 0.291250 0.492330 1.103396
Zn7   Zn    Zn3+2 0.707660 0.708750 0.492330 1.110833
Zn8   Zn    Zn3+2 0.292340 0.291250 0.507670 1.102693
Zn9   Zn    Zn3+2 0.505960 0.500000 0.080520 1.097703
Zn10  Zn    Zn3+2 0.494040 0.500000 0.919480 1.106938
Zn11  Zn    Zn3+2 0.005960 0.000000 0.080520 1.097700
Zn12  Zn    Zn3+2 0.994040 0.000000 0.919480 1.106937
C189  C     C_2   0.789772 0.496154 0.383966 0.999648
O49   O     O_2   0.813149 0.494897 0.300849 -0.583720
O50   O     O_R   0.733060 0.496571 0.433004 -0.731881
H25   H     H_    0.715763 0.496862 0.392171 0.343851
C190  C     C_2   0.204650 0.502091 0.614195 0.996549
O51   O     O_2   0.176687 0.502431 0.696928 -0.571925
O52   O     O_R   0.261265 0.502054 0.574371 -0.731070
H26   H     H_    0.274363 0.500711 0.620997 0.330091
C191  C     C_2   0.289773 0.996154 0.383967 0.999640
O53   O     O_2   0.313150 0.994898 0.300850 -0.583724
O54   O     O_R   0.233061 0.996571 0.433003 -0.731879
H27   H     H_    0.215765 0.996863 0.392169 0.343853
C192  C     C_2   0.704650 0.002090 0.614197 0.996549
O55   O     O_2   0.676687 0.002426 0.696930 -0.571921
O56   O     O_R   0.761265 0.002055 0.574373 -0.731071
H28   H     H_    0.774363 0.000712 0.621000 0.330090
C193  C     C_2   0.119741 0.318875 0.430738 0.986037
O57   O     O_2   0.161212 0.339146 0.364687 -0.611613
O58   O     O_R   0.101184 0.249005 0.431167 -0.813886
H29   H     H_    0.125683 0.220615 0.373648 0.347468
C194  C     C_2   0.925230 0.686656 0.359428 0.928210
O59   O     O_2   0.916125 0.677438 0.295706 -0.616745
O60   O     O_R   0.922926 0.754998 0.397417 -0.805800
H30   H     H_    0.911097 0.793806 0.370377 0.370698
C195  C     C_2   0.828363 0.370932 0.641560 0.939961
O61   O     O_2   0.783229 0.392024 0.658922 -0.644439
O62   O     O_R   0.833530 0.328852 0.704787 -0.764452
H31   H     H_    0.797633 0.320746 0.761354 0.349074
C196  C     C_2   0.178356 0.638022 0.353251 0.945880
O63   O     O_2   0.179574 0.692347 0.312979 -0.616214
O64   O     O_R   0.225813 0.597419 0.323462 -0.797259
H32   H     H_    0.257427 0.616949 0.266677 0.335201
C197  C     C_2   0.619742 0.818876 0.430737 0.986045
O65   O     O_2   0.661212 0.839148 0.364684 -0.611622
O66   O     O_R   0.601188 0.749006 0.431167 -0.813887
H33   H     H_    0.625687 0.720616 0.373648 0.347469
C198  C     C_2   0.425232 0.186654 0.359431 0.928176
O67   O     O_2   0.416159 0.177432 0.295677 -0.616695
O68   O     O_R   0.422907 0.254996 0.397430 -0.805785
H34   H     H_    0.411084 0.293800 0.370376 0.370697
C199  C     C_2   0.328364 0.870929 0.641561 0.939971
O69   O     O_2   0.283229 0.892015 0.658922 -0.644444
O70   O     O_R   0.333532 0.828853 0.704788 -0.764455
H35   H     H_    0.297636 0.820744 0.761354 0.349073
C200  C     C_2   0.678351 0.138021 0.353252 0.945936
O71   O     O_2   0.679562 0.192324 0.312953 -0.616214
O72   O     O_R   0.725813 0.097435 0.323480 -0.797278
H36   H     H_    0.757424 0.116956 0.266686 0.335204
C201  C     C_2   0.584378 0.299793 0.788595 0.940639
O73   O     O_2   0.582243 0.347433 0.741395 -0.562505
O74   O     O_R   0.549493 0.241060 0.810420 -0.785434
H37   H     H_    0.523962 0.244327 0.783831 0.346872
C202  C     C_2   0.415580 0.699400 0.212875 0.961664
O75   O     O_2   0.417740 0.650649 0.258689 -0.570574
O76   O     O_R   0.449287 0.759065 0.195009 -0.781532
H38   H     H_    0.474075 0.755459 0.222999 0.346358
C203  C     C_2   0.410151 0.323013 0.219713 0.976399
O77   O     O_2   0.399464 0.373642 0.273519 -0.592037
O78   O     O_R   0.460382 0.288294 0.184076 -0.771817
H39   H     H_    0.483393 0.307372 0.211314 0.332784
C204  C     C_2   0.585922 0.697322 0.794936 0.950797
O79   O     O_2   0.579586 0.651905 0.747121 -0.569918
O80   O     O_R   0.553876 0.759305 0.822903 -0.783728
H40   H     H_    0.526120 0.759825 0.800695 0.344012
C205  C     C_2   0.084378 0.799793 0.788595 0.940641
O81   O     O_2   0.082243 0.847432 0.741395 -0.562503
O82   O     O_R   0.049493 0.741060 0.810422 -0.785434
H41   H     H_    0.023962 0.744326 0.783832 0.346874
C206  C     C_2   0.915579 0.199400 0.212875 0.961661
O83   O     O_2   0.917740 0.150649 0.258688 -0.570574
O84   O     O_R   0.949287 0.259066 0.195008 -0.781532
H42   H     H_    0.974075 0.255460 0.222997 0.346359
C207  C     C_2   0.910153 0.823009 0.219711 0.976436
O85   O     O_2   0.899467 0.873638 0.273517 -0.592044
O86   O     O_R   0.960383 0.788288 0.184074 -0.771841
H43   H     H_    0.983395 0.807368 0.211310 0.332777
C208  C     C_2   0.085926 0.197315 0.794932 0.950809
O87   O     O_2   0.079591 0.151898 0.747115 -0.569913
O88   O     O_R   0.053877 0.259298 0.822899 -0.783732
H44   H     H_    0.026122 0.259815 0.800689 0.344011
C209  C     C_2   0.622143 0.348362 0.190382 0.901505
O89   O     O_2   0.592580 0.401288 0.216817 -0.585794
O90   O     O_R   0.627521 0.306685 0.253419 -0.797829
H45   H     H_    0.610280 0.330988 0.315779 0.336328
C210  C     C_2   0.383737 0.673210 0.804479 0.874124
O91   O     O_2   0.380463 0.719316 0.756739 -0.601884
O92   O     O_R   0.418393 0.614399 0.764379 -0.787136
H46   H     H_    0.437759 0.615536 0.695470 0.353314
C211  C     C_2   0.389605 0.317080 0.797553 0.893885
O93   O     O_2   0.420808 0.367347 0.764737 -0.604341
O94   O     O_R   0.382902 0.266965 0.740437 -0.782415
H47   H     H_    0.405203 0.278854 0.673730 0.356409
C212  C     C_2   0.713126 0.537298 0.053923 0.881848
O95   O     O_2   0.677729 0.493150 0.094381 -0.626097
O96   O     O_R   0.765806 0.525603 0.039425 -0.769712
H48   H     H_    0.769339 0.479366 0.066829 0.349042
C213  C     C_2   0.122146 0.848365 0.190379 0.901511
O97   O     O_2   0.092580 0.901289 0.216815 -0.585791
O98   O     O_R   0.127526 0.806691 0.253414 -0.797875
H49   H     H_    0.110283 0.830992 0.315773 0.336346
C214  C     C_2   0.883737 0.173216 0.804478 0.874122
O99   O     O_2   0.880459 0.219321 0.756741 -0.601883
O100  O     O_R   0.918401 0.114412 0.764372 -0.787138
H50   H     H_    0.937766 0.115553 0.695464 0.353313
C215  C     C_2   0.889605 0.817078 0.797552 0.893886
O101  O     O_2   0.920808 0.867345 0.764735 -0.604341
O102  O     O_R   0.882901 0.766964 0.740436 -0.782413
H51   H     H_    0.905203 0.778852 0.673729 0.356411
C216  C     C_2   0.213130 0.037304 0.053925 0.881844
O103  O     O_2   0.177733 0.993154 0.094384 -0.626106
O104  O     O_R   0.265811 0.025610 0.039421 -0.769709
H52   H     H_    0.269345 0.979373 0.066823 0.349044
O105  O     O_3   0.737187 0.134233 0.737995 -0.720487
H53   H     H_    0.764905 0.097019 0.726342 0.325184
O106  O     O_3   0.265648 0.868235 0.262645 -0.720742
H54   H     H_    0.238610 0.906389 0.274081 0.334714
O107  O     O_3   0.261496 0.130566 0.260783 -0.728810
H55   H     H_    0.296031 0.129734 0.263183 0.350513
O108  O     O_3   0.733714 0.863138 0.754232 -0.726897
H56   H     H_    0.759019 0.902614 0.748061 0.329406
O109  O     O_3   0.237187 0.634233 0.737996 -0.720485
H57   H     H_    0.264905 0.597020 0.726343 0.325185
O110  O     O_3   0.765647 0.368234 0.262646 -0.720744
H58   H     H_    0.738608 0.406387 0.274083 0.334714
O111  O     O_3   0.761495 0.630564 0.260783 -0.728810
H59   H     H_    0.796030 0.629733 0.263185 0.350520
O112  O     O_3   0.233714 0.363136 0.754231 -0.726912
H60   H     H_    0.259015 0.402615 0.748066 0.329414

loop_
_geom_bond_atom_site_label_1
_geom_bond_atom_site_label_2
_ccdc_geom_bond_type
C154  H3    S    
C210  O91   D    
C22   C94   A    
C9    C169  A    
O58   H29   S    
C34   C42   A    
O12   Zn7   S    
C205  O81   D    
C181  C187  A    
C61   C69   A    
C196  O63   D    
C27   C99   A    
C85   C182  S    
C140  O46   A    
C170  C178  A    
C12   C174  A    
O33   Zn11  S    
C42   C109  A    
O34   Zn12  S    
C116  C216  S    
C24   C96   A    
C149  H8    S    
C8    O32   A    
C3    O3    A    
C92   O16   A    
C30   C38   A    
O48   Zn9   S    
O86   H43   S    
C127  H19   S    
C5    O5    A    
C147  C155  A    
C186  C190  S    
C91   O15   A    
C143  C151  A    
C90   C177  S    
C11   C167  A    
C82   C98   A    
C76   C84   A    
C73   C81   A    
C209  O90   S    
O15   Zn4   S    
C162  C164  A    
C138  O48   A    
C114  C214  S    
C133  O33   A    
O74   H37   S    
C84   C100  A    
C85   O17   A    
C57   C65   A    
C37   C114  A    
C27   C35   A    
C10   C171  A    
C204  O79   D    
C21   C29   A    
C92   O24   A    
C81   C121  A    
C23   C31   A    
C24   C32   A    
O64   H32   S    
C146  C154  A    
O94   H47   S    
O32   Zn3   S    
C119  O107  S    
O47   Zn10  S    
C88   O20   A    
C63   C71   A    
C2    O2    A    
C216  O103  D    
C36   C44   A    
C129  H21   S    
O104  H52   S    
C67   C207  S    
C175  C183  A    
C176  C184  A    
C48   C96   A    
C90   O14   A    
O100  H50   S    
C124  O112  S    
C110  C210  S    
O109  H57   S    
C148  C162  A    
C192  O56   S    
C212  O95   D    
O35   Zn12  S    
C108  C116  A    
O36   Zn11  S    
C21   C93   A    
C78   C94   A    
C125  H17   S    
O6    Zn6   S    
C23   C95   A    
O27   Zn8   S    
C49   C97   A    
C21   C42   A    
C22   C41   A    
C89   O13   A    
C15   C195  S    
C51   C107  A    
C201  O73   D    
O92   H46   S    
C24   C43   A    
C63   C203  S    
C183  C188  A    
C82   C122  A    
C161  C165  A    
C17   C175  A    
C62   C202  S    
C18   C176  A    
C208  O87   D    
C4    O4    A    
C29   C125  A    
C69   C77   A    
O88   H44   S    
C31   C127  A    
C45   C93   A    
C174  C182  A    
C71   C79   A    
C187  C191  S    
C179  C186  A    
C62   C70   A    
C11   C176  A    
C17   C144  A    
C8    O8    A    
C151  H6    S    
C105  C113  A    
C18   C143  A    
C78   C118  A    
O41   Zn11  S    
C149  C151  A    
C101  H9    S    
O40   Zn9   S    
C199  O70   S    
O112  H60   S    
C66   C74   A    
C91   O23   A    
C8    C76   S    
C49   C57   A    
C124  C132  A    
C89   O21   A    
C202  O76   S    
C52   C60   A    
C59   C67   A    
C53   C61   A    
C141  C159  A    
C20   C174  A    
C197  O66   S    
C55   C63   A    
C86   C181  S    
C56   C64   A    
C102  H10   S    
C35   C43   A    
C68   C208  S    
O16   Zn3   S    
C156  H1    S    
O45   Zn9   S    
C45   C53   A    
C6    O6    A    
C190  O51   D    
C14   C194  S    
C195  O62   S    
C171  C179  A    
C169  C177  A    
O43   Zn12  S    
C198  O68   S    
O23   Zn7   S    
O44   Zn11  S    
C50   C98   A    
C135  O35   A    
C104  C112  A    
C145  C163  A    
C1    O25   A    
C146  C164  A    
C14   C147  A    
C52   C100  A    
C19   C199  S    
O80   H40   S    
O1    Zn1   S    
C16   C145  A    
C178  C186  A    
C107  H15   S    
C194  O59   D    
C25   C38   A    
C105  H13   S    
C54   C139  S    
C46   C94   A    
C27   C40   A    
C10   C166  A    
C91   C180  S    
C193  O57   D    
C182  C188  A    
C89   C178  S    
O14   Zn1   S    
C60   C68   A    
O11   Zn8   S    
C137  O47   A    
C25   C97   A    
C39   C116  A    
C131  H23   S    
C153  C155  A    
C17   C197  S    
O24   Zn8   S    
C109  C209  S    
C118  O106  S    
C22   C30   A    
C20   C141  A    
C138  O38   A    
C15   C146  A    
O17   Zn1   S    
C58   C135  S    
C191  O54   S    
C128  H20   S    
C59   C134  S    
C184  C187  A    
C32   C128  A    
C72   C80   A    
O111  H59   S    
C56   C137  S    
C189  O50   S    
C134  O34   A    
C5    C73   S    
C150  H7    S    
C215  O102  S    
O21   Zn5   S    
C13   C171  A    
C67   C75   A    
C157  C159  A    
C43   C112  A    
C3    O27   A    
O54   H27   S    
C6    O30   A    
C85   O9    A    
C25   C33   A    
C213  O98   S    
C119  C127  A    
O18   Zn2   S    
O50   H25   S    
C140  O40   A    
O68   H34   S    
C157  C167  A    
O37   Zn9   S    
C80   C120  A    
C209  O89   D    
C158  C168  A    
O102  H51   S    
C211  O94   S    
O7    Zn7   S    
C164  C165  A    
C214  O100  S    
C40   C115  A    
C101  C109  A    
O98   H49   S    
C177  C185  A    
C136  O36   A    
C103  C111  A    
C112  C212  S    
C203  O77   D    
C200  O72   S    
O19   Zn3   S    
C161  C163  A    
C162  C166  A    
C65   C205  S    
C79   C119  A    
C16   C196  S    
O52   H26   S    
C207  O86   S    
O20   Zn4   S    
C154  C156  A    
C120  O108  S    
C172  C180  A    
C204  O80   S    
C173  C181  A    
O70   H35   S    
C210  O92   S    
C83   C99   A    
C158  C160  A    
C133  O43   A    
C74   C82   A    
O39   Zn10  S    
C205  O82   S    
C6    C74   S    
C196  O64   S    
C216  O104  S    
C47   C103  A    
O66   H33   S    
C86   O18   A    
O3    Zn3   S    
C163  C166  A    
O4    Zn4   S    
C147  C161  A    
O60   H30   S    
C38   C113  A    
C49   C105  A    
C54   C62   A    
C28   C39   A    
C206  O83   D    
C1    C69   S    
C23   C44   A    
O25   Zn6   S    
C50   C58   A    
C3    C71   S    
O62   H31   S    
C19   C173  A    
C79   C95   A    
C192  O55   D    
C92   C179  S    
C61   C201  S    
C64   C204  S    
O82   H41   S    
C46   C54   A    
C66   C206  S    
C4    O28   A    
C45   C101  A    
C122  O110  S    
C19   C142  A    
O5    Zn5   S    
O29   Zn2   S    
C1    O1    A    
C102  C110  A    
C68   C76   A    
C35   C131  A    
C4    C72   S    
O105  H53   S    
C33   C129  A    
C123  C131  A    
O2    Zn2   S    
C121  C129  A    
C137  O37   A    
O110  H58   S    
C120  C128  A    
C26   C37   A    
C10   C170  A    
C117  O105  S    
C33   C41   A    
C142  C150  A    
C36   C132  A    
C134  O44   A    
O76   H38   S    
C75   C83   A    
C199  O69   D    
C126  H18   S    
C139  O45   A    
O42   Zn12  S    
C113  C213  S    
C202  O75   D    
O46   Zn10  S    
O72   H36   S    
C44   C111  A    
C16   C170  A    
C28   C36   A    
C144  C152  A    
C197  O65   D    
C29   C37   A    
C50   C106  A    
C9    C172  A    
C148  C156  A    
C83   C123  A    
C2    C70   S    
C60   C133  S    
C87   O11   A    
O84   H42   S    
C30   C126  A    
C13   C193  S    
C70   C78   A    
C53   C140  S    
C195  O61   D    
O96   H48   S    
C132  H24   S    
O78   H39   S    
C123  O111  S    
C141  C149  A    
O108  H56   S    
C198  O67   D    
C46   C102  A    
C90   O22   A    
C55   C138  S    
C152  H5    S    
C106  C114  A    
C136  O42   A    
C155  H2    S    
C77   C117  A    
C212  O96   S    
O22   Zn6   S    
C48   C104  A    
C65   C73   A    
C159  C168  A    
C15   C169  A    
C160  C167  A    
O9    Zn6   S    
C206  O84   S    
C58   C66   A    
O90   H45   S    
C201  O74   S    
C57   C136  S    
C80   C96   A    
C7    O7    A    
C28   C100  A    
C32   C40   A    
C52   C108  A    
C208  O88   S    
O28   Zn7   S    
O13   Zn2   S    
C26   C34   A    
C143  C157  A    
C51   C99   A    
C11   C173  A    
C9    C165  A    
C14   C172  A    
C104  H12   S    
C87   C184  S    
O10   Zn5   S    
C2    O26   A    
C88   C183  S    
C7    C75   S    
C191  O53   D    
C115  C215  S    
C185  C189  S    
C106  H14   S    
C88   O12   A    
C189  O49   D    
C203  O78   S    
C108  H16   S    
C103  H11   S    
C135  O41   A    
C107  C115  A    
C215  O101  D    
C26   C98   A    
C12   C175  A    
C111  C211  S    
C41   C110  A    
C190  O52   S    
O56   H28   S    
C150  C152  A    
C130  H22   S    
C51   C59   A    
O31   Zn4   S    
O38   Zn10  S    
C144  C158  A    
O8    Zn8   S    
C77   C93   A    
C47   C55   A    
C213  O97   D    
C121  O109  S    
C20   C200  S    
C48   C56   A    
C18   C198  S    
O26   Zn5   S    
C139  O39   A    
C142  C160  A    
C12   C168  A    
C84   C124  A    
C118  C126  A    
C211  O93   D    
C145  C153  A    
C194  O60   S    
C214  O99   D    
O107  H55   S    
C81   C97   A    
C87   O19   A    
C193  O58   S    
O30   Zn1   S    
C31   C39   A    
C64   C72   A    
C200  O71   D    
C180  C185  A    
C188  C192  S    
C34   C130  A    
C7    O31   A    
C47   C95   A    
C86   O10   A    
C13   C148  A    
C5    O29   A    
C207  O85   D    
C117  C125  A    
C122  C130  A    
O106  H54   S    
C153  H4    S    
