data_str_m3_o38_o41_f0_fof.sym.116
_audit_creation_date              2013-03-05T15:40:15-0500
_audit_creation_method            fapswitch 2.2
_symmetry_space_group_name_H-M    P1
_symmetry_Int_Tables_number       1
_space_group_crystal_system       triclinic
_cell_length_a                    28.120269
_cell_length_b                    18.474298
_cell_length_c                    16.982967
_cell_angle_alpha                 90.019323
_cell_angle_beta                  60.354066
_cell_angle_gamma                 90.021611
_cell_volume                      7667.78669071

loop_
_atom_site_label
_atom_site_type_symbol
_atom_site_description
_atom_site_fract_x
_atom_site_fract_y
_atom_site_fract_z
_atom_type_partial_charge
O1    O     O_R   0.746490 0.236330 0.638080 -0.637811
O2    O     O_R   0.253510 0.763670 0.361920 -0.631609
O3    O     O_R   0.253510 0.236330 0.361920 -0.623798
O4    O     O_R   0.746490 0.763670 0.638080 -0.657320
O5    O     O_R   0.246490 0.736330 0.638080 -0.638954
O6    O     O_R   0.753510 0.263670 0.361920 -0.655594
O7    O     O_R   0.753510 0.736330 0.361920 -0.635956
O8    O     O_R   0.246490 0.263670 0.638080 -0.637143
O9    O     O_R   0.674170 0.186160 0.516270 -0.636896
O10   O     O_R   0.325830 0.813840 0.483730 -0.634498
O11   O     O_R   0.325830 0.186160 0.483730 -0.649219
O12   O     O_R   0.674170 0.813840 0.516270 -0.638354
O13   O     O_R   0.174170 0.686160 0.516270 -0.648508
O14   O     O_R   0.825830 0.313840 0.483730 -0.647352
O15   O     O_R   0.825830 0.686160 0.483730 -0.642497
O16   O     O_R   0.174170 0.313840 0.516270 -0.646652
O17   O     O_R   0.739960 0.127620 0.525000 -0.569418
O18   O     O_R   0.260040 0.872380 0.475000 -0.567979
O19   O     O_R   0.260040 0.127620 0.475000 -0.556710
O20   O     O_R   0.739960 0.872380 0.525000 -0.567019
O21   O     O_R   0.239960 0.627620 0.525000 -0.551245
O22   O     O_R   0.760040 0.372380 0.475000 -0.566637
O23   O     O_R   0.760040 0.627620 0.475000 -0.570531
O24   O     O_R   0.239960 0.372380 0.525000 -0.562117
O25   O     O_R   0.680700 0.294870 0.629350 -0.560144
O26   O     O_R   0.319300 0.705130 0.370650 -0.553059
O27   O     O_R   0.319300 0.294870 0.370650 -0.583221
O28   O     O_R   0.680700 0.705130 0.629350 -0.567815
O29   O     O_R   0.180700 0.794870 0.629350 -0.590287
O30   O     O_R   0.819300 0.205130 0.370650 -0.565261
O31   O     O_R   0.819300 0.794870 0.370650 -0.558161
O32   O     O_R   0.180700 0.205130 0.629350 -0.560401
C1    C     C_R   0.700377 0.266099 0.676827 0.953446
C2    C     C_R   0.299623 0.733916 0.323173 0.975623
C3    C     C_R   0.299435 0.266590 0.323145 0.860402
C4    C     C_R   0.700613 0.733455 0.676776 0.926985
C5    C     C_R   0.200565 0.766473 0.676822 0.852593
C6    C     C_R   0.799588 0.233831 0.323182 0.928450
C7    C     C_R   0.799745 0.765908 0.323119 0.954667
C8    C     C_R   0.200352 0.233907 0.676858 0.944514
C9    C     C_R   0.695494 0.127556 0.521407 0.928972
C10   C     C_R   0.304524 0.872475 0.478492 0.934391
C11   C     C_R   0.309585 0.130065 0.462118 0.861789
C12   C     C_R   0.690405 0.869954 0.537818 0.930470
C13   C     C_R   0.190389 0.629685 0.538034 0.872342
C14   C     C_R   0.809136 0.370520 0.464819 0.934413
C15   C     C_R   0.804738 0.627849 0.478346 0.931941
C16   C     C_R   0.190877 0.370386 0.536906 0.932940
Zn1   Zn    Zn3+2 0.792340 0.208750 0.507670 1.091188
Zn2   Zn    Zn3+2 0.207660 0.791250 0.492330 1.087003
Zn3   Zn    Zn3+2 0.207660 0.208750 0.492330 1.089772
Zn4   Zn    Zn3+2 0.792340 0.791250 0.507670 1.081743
Zn5   Zn    Zn3+2 0.292340 0.708750 0.507670 1.098307
Zn6   Zn    Zn3+2 0.707660 0.291250 0.492330 1.083629
Zn7   Zn    Zn3+2 0.707660 0.708750 0.492330 1.097597
Zn8   Zn    Zn3+2 0.292340 0.291250 0.507670 1.091567
H1    H     H_    0.041033 0.251804 0.513448 0.159328
H2    H     H_    0.913322 0.733195 0.615680 0.151614
H3    H     H_    0.975121 0.254235 0.458511 0.164479
H4    H     H_    0.997849 0.738359 0.624543 0.168358
H5    H     H_    0.490112 0.775781 0.644342 0.173055
H6    H     H_    0.509846 0.224729 0.355357 0.171637
H7    H     H_    0.405529 0.782119 0.636303 0.157150
H8    H     H_    0.594351 0.218499 0.363578 0.153945
C17   C     C_R   0.575259 0.115045 0.432717 0.098091
C18   C     C_R   0.424734 0.885425 0.566887 0.112866
C19   C     C_R   0.478734 0.121408 0.421012 0.090528
C20   C     C_R   0.521438 0.878828 0.577888 0.090832
C21   C     C_R   0.020541 0.626885 0.583568 0.098511
C22   C     C_R   0.960287 0.369629 0.478986 0.090331
C23   C     C_R   0.925049 0.622167 0.568248 0.098810
C24   C     C_R   0.038800 0.367752 0.534713 0.089391
C25   C     C_R   0.565367 0.174219 0.390867 -0.142127
C26   C     C_R   0.434596 0.826293 0.608797 -0.137577
C27   C     C_R   0.517124 0.177829 0.386194 -0.120619
C28   C     C_R   0.482929 0.822560 0.613162 -0.168744
C29   C     C_R   0.986996 0.688294 0.604081 -0.138890
C30   C     C_R   0.985540 0.304346 0.479586 -0.150100
C31   C     C_R   0.938785 0.685339 0.598882 -0.147049
C32   C     C_R   0.022910 0.302944 0.511107 -0.149254
C33   C     C_R   0.489384 0.060749 0.460250 0.035497
C34   C     C_R   0.510720 0.939582 0.538920 0.042961
C35   C     C_R   0.537227 0.058104 0.467412 0.041311
C36   C     C_R   0.462827 0.942291 0.531956 0.037326
C37   C     C_R   0.958351 0.560923 0.547483 0.044324
C38   C     C_R   0.015507 0.433336 0.530696 0.048103
C39   C     C_R   0.004461 0.562309 0.559655 0.042852
C40   C     C_R   0.973619 0.433596 0.508461 0.043330
C41   C     C_R   0.944830 0.497535 0.516762 -0.018419
C42   C     C_R   0.033253 0.498364 0.550958 -0.014098
C43   C     C_R   0.452470 0.002484 0.491716 -0.016277
C44   C     C_R   0.547623 0.997853 0.507531 -0.015264
C45   C     C_R   0.888905 0.434042 0.464773 0.018643
C46   C     C_R   0.102089 0.565499 0.569897 0.031856
C47   C     C_R   0.104955 0.433118 0.561943 0.023348
C48   C     C_R   0.870140 0.560368 0.511757 0.011516
C49   C     C_R   0.371043 0.943019 0.506196 -0.002925
C50   C     C_R   0.628978 0.057293 0.493387 0.007520
C51   C     C_R   0.607044 0.934430 0.552155 0.020755
C52   C     C_R   0.393165 0.065682 0.446718 0.024690
C53   C     C_R   0.843063 0.434851 0.450204 -0.190804
C54   C     C_R   0.154370 0.565244 0.565300 -0.216268
C55   C     C_R   0.155477 0.434489 0.562630 -0.207522
C56   C     C_R   0.832391 0.561987 0.478034 -0.226554
C57   C     C_R   0.332039 0.939412 0.475644 -0.228435
C58   C     C_R   0.667977 0.060720 0.524018 -0.230753
C59   C     C_R   0.656057 0.934400 0.557253 -0.190894
C60   C     C_R   0.344054 0.065683 0.441991 -0.199880
C61   C     C_R   0.822400 0.499998 0.441309 0.219184
C62   C     C_R   0.176022 0.499935 0.574922 0.235892
C63   C     C_R   0.321233 0.000560 0.438456 0.243369
C64   C     C_R   0.678778 0.999504 0.561082 0.226365
C65   C     C_R   0.901740 0.497598 0.496647 0.071494
C66   C     C_R   0.080013 0.499071 0.561630 0.076368
C67   C     C_R   0.405822 0.003614 0.481050 0.076231
C68   C     C_R   0.594280 0.996655 0.518211 0.074354
C69   C     C_R   0.077959 0.368066 0.561678 -0.176442
C70   C     C_R   0.878832 0.619303 0.557559 -0.205230
C71   C     C_R   0.921236 0.371578 0.451165 -0.171358
C72   C     C_R   0.069700 0.628743 0.586411 -0.147274
C73   C     C_R   0.570150 0.875586 0.581627 -0.178186
C74   C     C_R   0.430184 0.124423 0.416668 -0.146758
C75   C     C_R   0.378113 0.887623 0.557329 -0.185162
C76   C     C_R   0.621848 0.112851 0.442438 -0.202447
H9    H     H_    0.085596 0.316559 0.582868 0.209417
H10   H     H_    0.850409 0.663613 0.586377 0.171409
H11   H     H_    0.917316 0.323916 0.418045 0.199333
H12   H     H_    0.080540 0.679134 0.605615 0.190072
H13   H     H_    0.577556 0.828452 0.611548 0.209207
H14   H     H_    0.422998 0.171204 0.385793 0.190399
H15   H     H_    0.347790 0.845806 0.590668 0.184682
H16   H     H_    0.652107 0.154776 0.409313 0.164938
C77   C     C_R   0.718861 0.262305 0.955698 -0.096168
C78   C     C_R   0.279696 0.734862 0.046331 -0.112905
C79   C     C_R   0.279458 0.264890 0.045840 -0.101815
C80   C     C_R   0.721539 0.733288 0.953241 -0.088545
C81   C     C_R   0.223660 0.769199 0.950255 -0.114177
C82   C     C_R   0.780314 0.236196 0.045158 -0.089496
C83   C     C_R   0.782814 0.759725 0.042858 -0.096343
C84   C     C_R   0.218597 0.237896 0.955769 -0.093801
C85   C     C_R   0.773958 0.283494 0.916261 -0.323148
C86   C     C_R   0.287305 0.802143 0.003044 -0.301272
C87   C     C_R   0.224772 0.287478 0.083851 -0.312353
C88   C     C_R   0.776664 0.712382 0.913716 -0.328398
C89   C     C_R   0.216259 0.701805 0.993168 -0.295032
C90   C     C_R   0.725228 0.215045 0.084647 -0.330315
C91   C     C_R   0.727712 0.780770 0.082180 -0.321395
C92   C     C_R   0.273233 0.215269 0.917847 -0.296480
H17   H     H_    0.792775 0.310884 0.851382 0.203390
H18   H     H_    0.315224 0.840775 0.006404 0.226857
H19   H     H_    0.206100 0.316204 0.147836 0.206628
H20   H     H_    0.795546 0.685195 0.848677 0.196909
H21   H     H_    0.188465 0.663095 0.989567 0.227536
H22   H     H_    0.706418 0.187756 0.149604 0.195696
H23   H     H_    0.708817 0.808223 0.147031 0.204018
H24   H     H_    0.291897 0.186544 0.853859 0.205869
C93   C     C_R   0.804769 0.271543 0.959880 0.483611
C94   C     C_R   0.260121 0.819701 0.954613 0.479526
C95   C     C_R   0.194238 0.275022 0.039850 0.483779
C96   C     C_R   0.807421 0.724436 0.957418 0.478091
C97   C     C_R   0.243681 0.684044 0.041116 0.480673
C98   C     C_R   0.694447 0.226811 0.040945 0.479537
C99   C     C_R   0.697027 0.768774 0.038402 0.477626
C100  C     C_R   0.303707 0.227477 0.961938 0.479115
C101  C     C_R   0.642322 0.325346 0.947090 -0.133872
C102  C     C_R   0.357748 0.674709 0.052699 -0.132729
C103  C     C_R   0.355998 0.327909 0.054185 -0.135620
C104  C     C_R   0.644774 0.670717 0.944998 -0.154326
C105  C     C_R   0.145350 0.829660 0.944568 -0.137266
C106  C     C_R   0.856888 0.173338 0.053684 -0.148625
C107  C     C_R   0.858921 0.823463 0.051895 -0.131410
C108  C     C_R   0.142383 0.174464 0.947038 -0.123832
H25   H     H_    0.631713 0.350905 0.011119 0.205314
H26   H     H_    0.369164 0.650559 0.987563 0.204937
H27   H     H_    0.366337 0.353959 0.990540 0.206583
H28   H     H_    0.634494 0.644440 0.008479 0.198547
H29   H     H_    0.134803 0.855313 0.008551 0.196862
H30   H     H_    0.867316 0.147422 0.989924 0.198937
H31   H     H_    0.869695 0.848633 0.987599 0.205772
H32   H     H_    0.131736 0.149029 0.011150 0.203234
C109  C     C_R   0.612007 0.340012 0.902719 -0.201653
C110  C     C_R   0.388127 0.660188 0.097054 -0.205862
C111  C     C_R   0.387075 0.341085 0.097565 -0.179446
C112  C     C_R   0.613483 0.657992 0.901896 -0.208771
C113  C     C_R   0.113590 0.841755 0.901998 -0.188451
C114  C     C_R   0.887575 0.159402 0.097562 -0.211066
C115  C     C_R   0.888723 0.839138 0.096851 -0.202264
C116  C     C_R   0.112055 0.159842 0.902739 -0.213161
C117  C     C_R   0.623593 0.303624 0.823720 0.387084
C118  C     C_R   0.376409 0.696423 0.176243 0.357501
C119  C     C_R   0.376205 0.303256 0.175170 0.354384
C120  C     C_R   0.624647 0.695320 0.823962 0.392135
C121  C     C_R   0.124168 0.803398 0.824837 0.334981
C122  C     C_R   0.876194 0.196202 0.176151 0.381566
C123  C     C_R   0.876923 0.803271 0.176320 0.389292
C124  C     C_R   0.123581 0.196298 0.823884 0.378860
C125  C     C_R   0.675329 0.273645 0.774608 -0.180846
C126  C     C_R   0.324614 0.726318 0.225410 -0.186489
C127  C     C_R   0.324100 0.274425 0.225410 -0.189463
C128  C     C_R   0.676499 0.724629 0.774135 -0.164965
C129  C     C_R   0.176192 0.774472 0.774424 -0.187354
C130  C     C_R   0.824403 0.225962 0.225515 -0.167625
C131  C     C_R   0.825238 0.772925 0.225141 -0.183427
C132  C     C_R   0.175347 0.226234 0.774623 -0.176823
C133  C     C_R   0.706233 0.257758 0.818133 -0.212009
C134  C     C_R   0.293462 0.741719 0.182164 -0.162557
C135  C     C_R   0.292385 0.259948 0.182929 -0.178955
C136  C     C_R   0.708312 0.738926 0.816465 -0.212204
C137  C     C_R   0.208403 0.760706 0.816191 -0.137042
C138  C     C_R   0.793188 0.241284 0.182391 -0.212650
C139  C     C_R   0.794844 0.756103 0.181011 -0.212303
C140  C     C_R   0.206297 0.242053 0.818060 -0.200425
H33   H     H_    0.745049 0.229692 0.782313 0.191020
H34   H     H_    0.254374 0.769138 0.218098 0.192465
H35   H     H_    0.253394 0.232310 0.219072 0.188777
H36   H     H_    0.747219 0.766773 0.780368 0.184584
H37   H     H_    0.247483 0.733311 0.779860 0.187979
H38   H     H_    0.754338 0.269263 0.218297 0.184718
H39   H     H_    0.756100 0.727829 0.216642 0.191966
H40   H     H_    0.245121 0.270130 0.782289 0.190276
C141  C     C_R   0.687753 0.279705 0.907575 0.148091
C142  C     C_R   0.311373 0.718521 0.093501 0.148314
C143  C     C_R   0.310473 0.282485 0.093900 0.139775
C144  C     C_R   0.690384 0.716015 0.905301 0.163901
C145  C     C_R   0.191582 0.785531 0.903782 0.155492
C146  C     C_R   0.811449 0.218924 0.093198 0.166150
C147  C     C_R   0.813692 0.777473 0.091237 0.148006
C148  C     C_R   0.187756 0.220142 0.907482 0.163598
O33   O     O_R   0.062020 0.072840 0.007170 -0.613714
O34   O     O_R   0.937980 0.927160 0.992830 -0.621606
O35   O     O_R   0.937980 0.072840 0.992830 -0.619904
O36   O     O_R   0.062020 0.927160 0.007170 -0.619176
O37   O     O_R   0.562020 0.572840 0.007170 -0.620234
O38   O     O_R   0.437980 0.427160 0.992830 -0.614029
O39   O     O_R   0.437980 0.572840 0.992830 -0.618696
O40   O     O_R   0.562020 0.427160 0.007170 -0.621631
O41   O     O_R   0.947860 0.073950 0.109290 -0.568331
O42   O     O_R   0.052140 0.926050 0.890710 -0.572963
O43   O     O_R   0.052140 0.073950 0.890710 -0.569125
O44   O     O_R   0.947860 0.926050 0.109290 -0.568889
O45   O     O_R   0.447860 0.573950 0.109290 -0.565523
O46   O     O_R   0.552140 0.426050 0.890710 -0.568528
O47   O     O_R   0.552140 0.573950 0.890710 -0.572508
O48   O     O_R   0.447860 0.426050 0.109290 -0.573460
C149  C     C_R   0.072278 0.102017 0.935527 0.965264
C150  C     C_R   0.928010 0.897656 0.064257 0.951718
C151  C     C_R   0.927591 0.101884 0.064604 0.954345
C152  C     C_R   0.072951 0.898618 0.935002 0.970183
C153  C     C_R   0.572816 0.601409 0.935104 0.955242
C154  C     C_R   0.427260 0.398442 0.064833 0.957329
C155  C     C_R   0.427921 0.602276 0.064276 0.971186
C156  C     C_R   0.572264 0.397939 0.935516 0.952702
Zn9   Zn    Zn3+2 0.505960 0.500000 0.080520 1.141027
Zn10  Zn    Zn3+2 0.494040 0.500000 0.919480 1.141072
Zn11  Zn    Zn3+2 0.005960 1.000000 0.080520 1.146367
Zn12  Zn    Zn3+2 0.994040 1.000000 0.919480 1.136539
N1    N     N_R   0.793908 0.502813 0.390452 0.228591
O49   O     O_R   0.740649 0.502162 0.431816 -0.344034
O50   O     O_R   0.821118 0.491668 0.303474 -0.321330
N2    N     N_R   0.215722 0.500166 0.605042 0.226766
O51   O     O_R   0.199369 0.510330 0.690462 -0.344365
O52   O     O_R   0.267973 0.499155 0.547148 -0.339973
N3    N     N_R   0.289622 0.997129 0.392849 0.227514
O53   O     O_R   0.236363 0.997522 0.439086 -0.343454
O54   O     O_R   0.313853 0.008947 0.306039 -0.336764
N4    N     N_R   0.710201 0.002895 0.607023 0.231495
O55   O     O_R   0.685753 0.991367 0.693906 -0.323175
O56   O     O_R   0.763467 0.002416 0.561103 -0.344658
S1    S     S_3+6 0.626302 0.193918 0.094244 0.058082
O57   O     O_2   0.612144 0.167037 0.024803 -0.203257
O58   O     O_2   0.619662 0.133011 0.157623 -0.282999
O59   O     O_3   0.583601 0.261468 0.154043 -0.557563
H41   H     H_    0.546980 0.238650 0.186657 0.421539
S2    S     S_3+6 0.231820 0.598294 0.094357 0.037242
O60   O     O_2   0.219675 0.607641 0.190482 -0.308117
O61   O     O_2   0.184325 0.561002 0.094237 -0.232453
O62   O     O_3   0.288144 0.546910 0.037819 -0.567038
H42   H     H_    0.280601 0.502493 0.074819 0.381615
S3    S     S_3+6 0.371366 0.193125 0.910683 0.069102
O63   O     O_2   0.384855 0.167617 0.981402 -0.207681
O64   O     O_2   0.377406 0.130856 0.849336 -0.266739
O65   O     O_3   0.414989 0.259323 0.848997 -0.540697
H43   H     H_    0.449971 0.234350 0.809026 0.406212
S4    S     S_3+6 0.628887 0.801592 0.091059 0.059895
O66   O     O_2   0.590573 0.741064 0.143840 -0.280756
O67   O     O_2   0.621766 0.862386 0.154857 -0.259831
O68   O     O_3   0.613703 0.831979 0.012706 -0.496553
H44   H     H_    0.573310 0.836302 0.044935 0.417895
S5    S     S_3+6 0.273471 0.904230 0.898380 0.028483
O69   O     O_2   0.223871 0.951764 0.946789 -0.308725
O70   O     O_2   0.321510 0.940809 0.897478 -0.238247
O71   O     O_3   0.287210 0.891385 0.791095 -0.591738
H45   H     H_    0.292750 0.940582 0.764793 0.383603
S6    S     S_3+6 0.873040 0.303988 0.906684 0.049751
O72   O     O_2   0.911074 0.243259 0.853809 -0.288105
O73   O     O_2   0.880189 0.364746 0.842857 -0.269358
O74   O     O_3   0.888655 0.334259 0.984600 -0.497943
H46   H     H_    0.929022 0.339103 0.951800 0.411846
S7    S     S_3+6 0.875805 0.692367 0.903650 0.060043
O75   O     O_2   0.890548 0.666351 0.972703 -0.204751
O76   O     O_2   0.882520 0.631025 0.840718 -0.284602
O77   O     O_3   0.917998 0.760167 0.843151 -0.552061
H47   H     H_    0.954228 0.737029 0.806452 0.420824
S8    S     S_3+6 0.126399 0.308713 0.091065 0.056132
O78   O     O_2   0.087556 0.249004 0.145016 -0.292212
O79   O     O_2   0.119507 0.370469 0.153520 -0.247686
O80   O     O_3   0.111824 0.337866 0.011533 -0.502583
H48   H     H_    0.071446 0.342333 0.043183 0.410905
S9    S     S_3+6 0.572236 0.287852 0.793117 0.074268
O81   O     O_2   0.516968 0.283705 0.877021 -0.246042
O82   O     O_2   0.572402 0.348517 0.733986 -0.293997
O83   O     O_3   0.584642 0.209083 0.736463 -0.525864
H49   H     H_    0.558533 0.207962 0.713252 0.378382
S10   S     S_3+6 0.427672 0.711928 0.207243 0.077857
O84   O     O_2   0.427236 0.651182 0.266489 -0.271326
O85   O     O_2   0.483099 0.716000 0.123651 -0.262074
O86   O     O_3   0.415301 0.790630 0.264011 -0.535804
H50   H     H_    0.443059 0.793157 0.283695 0.399169
S11   S     S_3+6 0.429929 0.279209 0.197373 0.074206
O87   O     O_2   0.484502 0.288171 0.113022 -0.230961
O88   O     O_2   0.428500 0.326296 0.270691 -0.298868
O89   O     O_3   0.424080 0.191714 0.228408 -0.495528
H51   H     H_    0.388241 0.187350 0.284179 0.326596
S12   S     S_3+6 0.572077 0.716464 0.798232 0.049898
O90   O     O_2   0.571238 0.661705 0.733468 -0.275920
O91   O     O_2   0.517332 0.716732 0.883619 -0.308613
O92   O     O_3   0.584227 0.799193 0.750850 -0.572095
H52   H     H_    0.547855 0.822434 0.775912 0.387071
S13   S     S_3+6 0.070307 0.779312 0.802867 0.064987
O93   O     O_2   0.015771 0.787829 0.887410 -0.232830
O94   O     O_2   0.071472 0.826703 0.730021 -0.297832
O95   O     O_3   0.076310 0.691961 0.771162 -0.504793
H53   H     H_    0.111306 0.688396 0.713732 0.326643
S14   S     S_3+6 0.928001 0.213506 0.205255 0.072502
O96   O     O_2   0.928159 0.154652 0.266213 -0.269800
O97   O     O_2   0.983064 0.216299 0.120681 -0.277193
O98   O     O_3   0.915953 0.293581 0.259019 -0.557017
H54   H     H_    0.951588 0.308335 0.252532 0.392072
S15   S     S_3+6 0.927821 0.789047 0.208390 0.074928
O99   O     O_2   0.983524 0.785210 0.125389 -0.269789
O100  O     O_2   0.926633 0.850369 0.267576 -0.292639
O101  O     O_3   0.915585 0.710644 0.265684 -0.524258
H55   H     H_    0.941358 0.710352 0.289589 0.387186
S16   S     S_3+6 0.071769 0.213709 0.794906 0.068627
O102  O     O_2   0.071879 0.155388 0.733089 -0.266621
O103  O     O_2   0.016649 0.215774 0.879426 -0.278492
O104  O     O_3   0.083624 0.294262 0.742306 -0.570035
H56   H     H_    0.047530 0.310438 0.752018 0.393495

loop_
_geom_bond_atom_site_label_1
_geom_bond_atom_site_label_2
_geom_bond_distance
_ccdc_geom_bond_type
O4    C4    1.252507 A    
O5    C5    1.253200 A    
C126  C134  1.422873 A    
C138  C146  1.399677 A    
C59   C64   1.378227 A    
O7    Zn7   2.000608 S    
O31   Zn4   2.061312 S    
C107  H31   1.083192 S    
O8    Zn8   2.000608 S    
O98   H54   0.990543 S    
C101  C141  1.394861 A    
C118  C126  1.385925 A    
O65   H43   0.990378 S    
C81   C94   1.414732 A    
C106  H30   1.083218 S    
S4    O66   1.503013 D    
C130  C138  1.422405 A    
C115  C150  1.445736 S    
C84   C95   1.417992 A    
C38   C40   1.403618 A    
C123  C131  1.386232 A    
C121  C129  1.385615 A    
O30   C6    1.296460 A    
S2    O60   1.503248 D    
C129  C137  1.422727 A    
C82   C146  1.496997 S    
C33   C35   1.410335 A    
O28   Zn7   2.061312 S    
S8    O80   1.682479 S    
O59   H41   0.990210 S    
C36   C43   1.409292 A    
O40   Zn9   1.976228 S    
C49   C67   1.406518 A    
C91   H23   1.083269 S    
O34   C150  1.229258 A    
C51   C73   1.412253 A    
C49   C57   1.428130 A    
O2    C2    1.254109 A    
C87   H19   1.083291 S    
C128  C136  1.422266 A    
C25   C27   1.399196 A    
O38   C154  1.226091 A    
C52   C67   1.409798 A    
O6    Zn6   2.000475 S    
O33   Zn11  1.975989 S    
C29   C31   1.402549 A    
C41   C65   1.412233 A    
C102  H26   1.083639 S    
C84   C148  1.495129 S    
C110  C118  1.388000 A    
C38   C42   1.407053 A    
C45   C53   1.427861 A    
C51   C68   1.409998 A    
O101  H55   0.990548 S    
C140  H40   1.083355 S    
O27   C3    1.296621 A    
S10   O84   1.503511 D    
C92   C100  1.407272 A    
C93   S6    1.773362 S    
C62   N2    1.439762 S    
C90   H22   1.083439 S    
C132  C140  1.421924 A    
O35   Zn12  1.976226 S    
C44   C68   1.410725 A    
H2    C31   1.083489 S    
C85   C93   1.408324 A    
O30   Zn1   2.061280 S    
C34   C36   1.409917 A    
C106  C146  1.394420 A    
H6    C27   1.083210 S    
C117  C125  1.385213 A    
N3    O54   1.300689 A    
C48   C56   1.434286 A    
C15   C56   1.442858 S    
S4    O68   1.682532 S    
O35   C151  1.227368 A    
O39   Zn10  1.976226 S    
C20   C73   1.403596 A    
O23   Zn7   2.018697 S    
H7    C26   1.083656 S    
O24   Zn8   2.018697 S    
C79   C143  1.495448 S    
O9    C9    1.261594 A    
C50   C58   1.428828 A    
C60   C63   1.378541 A    
C137  H37   1.083503 S    
C112  C153  1.442218 S    
O12   C12   1.257646 A    
O13   C13   1.265139 A    
S14   O98   1.682357 S    
C89   C97   1.409578 A    
S12   O92   1.681846 S    
C11   C60   1.464180 S    
C120  C128  1.383601 A    
C13   C54   1.480905 S    
C40   C41   1.399373 A    
C46   C54   1.433134 A    
C6    C130  1.454024 S    
O7    C7    1.255118 A    
O9    Zn6   2.107569 S    
O8    C8    1.254499 A    
C53   C61   1.377108 A    
O11   Zn8   2.107971 S    
S11   O88   1.502846 D    
C135  C143  1.399138 A    
C21   C29   1.404877 A    
C102  C110  1.416346 A    
O16   Zn3   2.107971 S    
C23   C31   1.407079 A    
C19   C27   1.403411 A    
C3    C127  1.455416 S    
O22   Zn6   2.018020 S    
C47   C69   1.422419 A    
C42   C66   1.413421 A    
C50   C76   1.419425 A    
C26   C28   1.399010 A    
C55   C62   1.399231 A    
O18   C10   1.281285 A    
C30   C32   1.395707 A    
C88   C96   1.408302 A    
C18   C26   1.404613 A    
O83   H49   0.990512 S    
O41   C151  1.263137 A    
N1    O49   1.302234 A    
C17   C76   1.399735 A    
C81   C145  1.494089 S    
O2    Zn2   2.000475 S    
C46   C72   1.421699 A    
C8    C132  1.454787 S    
C78   C142  1.494199 S    
H8    C25   1.083669 S    
O6    C6    1.254042 A    
C123  S15   1.784883 S    
O38   Zn10  1.975990 S    
C117  S9    1.784030 S    
C118  S10   1.785380 S    
O33   C149  1.227708 A    
S3    O64   1.503976 D    
O62   H42   0.990725 S    
S13   O94   1.502915 D    
H1    C32   1.083687 S    
C131  C139  1.422013 A    
O36   Zn11  1.976228 S    
O40   C156  1.228057 A    
C120  S12   1.780012 S    
H3    C30   1.083664 S    
C105  H29   1.083623 S    
O20   C12   1.300424 A    
C47   C55   1.426717 A    
O21   C13   1.299359 A    
S9    O82   1.503559 D    
H5    C28   1.083675 S    
C14   C53   1.466054 S    
C52   C60   1.422434 A    
O23   C15   1.285974 A    
O24   C16   1.292716 A    
O95   H53   0.987190 S    
O17   Zn1   2.018020 S    
S14   O96   1.503077 D    
S12   O90   1.502860 D    
C16   C55   1.467853 S    
O36   C152  1.225422 A    
C33   C43   1.404462 A    
C2    C126  1.454587 S    
C80   C144  1.495816 S    
O3    C3    1.253924 A    
S5    O69   1.502843 D    
C116  C149  1.444216 S    
N4    O56   1.302403 A    
C19   C33   1.409893 A    
C39   C42   1.398281 A    
C124  C132  1.385517 A    
C103  H27   1.083415 S    
C12   C59   1.464452 S    
C104  H28   1.083255 S    
C114  C122  1.386713 A    
N2    O51   1.300446 A    
C136  C144  1.399026 A    
C139  H39   1.083327 S    
C78   C97   1.415242 A    
O46   C156  1.263107 A    
S4    O67   1.503379 D    
C111  C154  1.444588 S    
C24   C32   1.403704 A    
C91   C99   1.407412 A    
C134  H34   1.083408 S    
C134  C142  1.397898 A    
S2    O61   1.503459 D    
S7    O77   1.681084 S    
O12   Zn7   2.107971 S    
O13   Zn2   2.107569 S    
S15   O101  1.683007 S    
O45   Zn9   1.996485 S    
S16   O102  1.503020 D    
S12   O91   1.504762 D    
O42   C152  1.265350 A    
C18   C75   1.399036 A    
C45   C71   1.415758 A    
C69   H9    1.076077 S    
O25   C1    1.296395 A    
C71   H11   1.079269 S    
C19   C74   1.404338 A    
C98   S1    1.773188 S    
O47   C153  1.263712 A    
C7    C131  1.455852 S    
O10   C10   1.262359 A    
S2    O62   1.681576 S    
C125  C133  1.422515 A    
C77   C98   1.419255 A    
C102  C142  1.393681 A    
O37   C153  1.225317 A    
N3    O53   1.302395 A    
O14   C14   1.252889 A    
C90   C98   1.408219 A    
C81   C89   1.405330 A    
C96   S7    1.773708 S    
C86   C94   1.410128 A    
O34   Zn12  1.975990 S    
S6    O72   1.503013 D    
C47   C66   1.407434 A    
S10   O85   1.503792 D    
C122  C130  1.385130 A    
S5    O71   1.681888 S    
C34   C44   1.404356 A    
C83   C147  1.497302 S    
S13   O93   1.503276 D    
O10   Zn5   2.107569 S    
C109  C117  1.387508 A    
O45   C155  1.263786 A    
C77   C141  1.498054 S    
S3    O63   1.503199 D    
C112  C120  1.383945 A    
C100  S3    1.772695 S    
O39   C155  1.228055 A    
C21   C39   1.404844 A    
C108  H32   1.083380 S    
S10   O86   1.682885 S    
O89   H51   0.987396 S    
C57   C63   1.399280 A    
C133  H33   1.083333 S    
S1    O57   1.503282 D    
O44   C150  1.262317 A    
C84   C92   1.404076 A    
C137  C145  1.396615 A    
O19   C11   1.299776 A    
C9    C58   1.445919 S    
O1    C1    1.254237 A    
O80   H48   0.990566 S    
O25   Zn6   2.061280 S    
S6    O74   1.682446 S    
O104  H56   0.990580 S    
O3    Zn3   2.000608 S    
O27   Zn8   2.061312 S    
S7    O75   1.503200 D    
O32   Zn3   2.061312 S    
C78   C86   1.405701 A    
S15   O99   1.503750 D    
S16   O104  1.682173 S    
C106  C114  1.415165 A    
C135  H35   1.083351 S    
C45   C65   1.412266 A    
O15   Zn4   2.107971 S    
C103  C143  1.394031 A    
C113  C152  1.445858 S    
O22   C14   1.304234 A    
C107  C147  1.394564 A    
C83   C96   1.419754 A    
O48   Zn9   1.995868 S    
C122  S14   1.783460 S    
C105  C145  1.394334 A    
C48   C65   1.405417 A    
C54   C62   1.397240 A    
C20   C28   1.403529 A    
O18   Zn2   2.018020 S    
O5    Zn5   2.000475 S    
C37   C41   1.408393 A    
C75   H15   1.080123 S    
O41   Zn11  1.996485 S    
C4    C128  1.452992 S    
C73   H13   1.079327 S    
C109  C156  1.445394 S    
C24   C38   1.395186 A    
C72   H12   1.078829 S    
C87   C95   1.408224 A    
C51   C59   1.423085 A    
C21   C72   1.407262 A    
C77   C85   1.405507 A    
O43   C149  1.262833 A    
C86   H18   1.082973 S    
C20   C34   1.409488 A    
O92   H52   0.990527 S    
C80   C88   1.404835 A    
C108  C148  1.393908 A    
C119  S11   1.784932 S    
C43   C67   1.410331 A    
C10   C57   1.446552 S    
C97   S2    1.772185 S    
S11   O87   1.503249 D    
C140  C148  1.399618 A    
O28   C4    1.296825 A    
C49   C75   1.418617 A    
S1    O59   1.680620 S    
O29   C5    1.297413 A    
O43   Zn12  1.995867 S    
C5    C129  1.454346 S    
C92   H24   1.083327 S    
C94   S5    1.771282 S    
C88   H20   1.083442 S    
C80   C99   1.417780 A    
O21   Zn5   2.018020 S    
C22   C30   1.402413 A    
O74   H46   0.990572 S    
O15   C15   1.254489 A    
C22   C40   1.404496 A    
O16   C16   1.263777 A    
C46   C66   1.413034 A    
C85   H17   1.083268 S    
C58   C64   1.399053 A    
S9    O81   1.503619 D    
C35   C44   1.409438 A    
C83   C91   1.405216 A    
O47   Zn10  1.995867 S    
O48   C154  1.264098 A    
O4    Zn4   2.000608 S    
C48   C70   1.427434 A    
O71   H45   0.990557 S    
C119  C127  1.386181 A    
C56   C61   1.397152 A    
S14   O97   1.504337 D    
C17   C35   1.404895 A    
O14   Zn1   2.107569 S    
C101  H25   1.083168 S    
C17   C25   1.404968 A    
S3    O65   1.681164 S    
C133  C141  1.400235 A    
C23   C37   1.398323 A    
O26   C2    1.296518 A    
C103  C111  1.415043 A    
O68   H44   0.990545 S    
C104  C112  1.415025 A    
C24   C69   1.386039 A    
O11   C11   1.258012 A    
O37   Zn9   1.975989 S    
C89   H21   1.082994 S    
S11   O89   1.682934 S    
C136  H36   1.083393 S    
C139  C147  1.400748 A    
C104  C144  1.394258 A    
C114  C151  1.444319 S    
C76   H16   1.080103 S    
O29   Zn2   2.061280 S    
C37   C39   1.410592 A    
H4    C29   1.083425 S    
C121  S13   1.785949 S    
N2    O52   1.302589 A    
O42   Zn12  1.996486 S    
S8    O79   1.503399 D    
N1    O50   1.300621 A    
C110  C155  1.446037 S    
C95   S8    1.772600 S    
C50   C68   1.406168 A    
C79   C100  1.418280 A    
C1    C125  1.454652 S    
C22   C71   1.394160 A    
C127  C135  1.422545 A    
C99   S4    1.773168 S    
S7    O76   1.503954 D    
C63   N3    1.440531 S    
S8    O78   1.503036 D    
S15   O100  1.503626 D    
S16   O103  1.504422 D    
O46   Zn10  1.996486 S    
S13   O95   1.682943 S    
O26   Zn5   2.061280 S    
C64   N4    1.440608 S    
S9    O83   1.682984 S    
O77   H47   0.990500 S    
O44   Zn11  1.995868 S    
C23   C70   1.399348 A    
C115  C123  1.388536 A    
C113  C121  1.386265 A    
C111  C119  1.385920 A    
C138  H38   1.083383 S    
C107  C115  1.414828 A    
C82   C90   1.404971 A    
C101  C109  1.415554 A    
S1    O58   1.503778 D    
C105  C113  1.417480 A    
O20   Zn4   2.018697 S    
S6    O73   1.503456 D    
C82   C93   1.418393 A    
C108  C116  1.414458 A    
C79   C87   1.404953 A    
S5    O70   1.503517 D    
O31   C7    1.295714 A    
C52   C74   1.412702 A    
O32   C8    1.295974 A    
C61   N1    1.440566 S    
O86   H50   0.990597 S    
C124  S16   1.782768 S    
O17   C9    1.281687 A    
N4    O55   1.300680 A    
C18   C36   1.404981 A    
O19   Zn3   2.018697 S    
C116  C124  1.386762 A    
C70   H10   1.077827 S    
O1    Zn1   2.000475 S    
C74   H14   1.080696 S    
