data_str_m4_o22_o22_f0_acs.sym.81
_audit_creation_date              2012-12-11T15:07:08-0500
_audit_creation_method            fapswitch 2.2
_symmetry_space_group_name_H-M    P1
_symmetry_Int_Tables_number       1
_space_group_crystal_system       triclinic
_cell_length_a                    19.7409
_cell_length_b                    11.401205
_cell_length_c                    18.721802
_cell_angle_alpha                 90.000017
_cell_angle_beta                  90.946597
_cell_angle_gamma                 90.0
_cell_volume                      4213.14181433

loop_
_atom_site_label
_atom_site_type_symbol
_atom_type_description
_atom_site_fract_x
_atom_site_fract_y
_atom_site_fract_z
_atom_type_partial_charge
C1    C     C_R   0.761832 0.522091 0.638626 0.530650
C2    C     C_R   0.238168 0.522091 0.361374 0.530650
C3    C     C_R   0.261832 0.022091 0.638626 0.530650
C4    C     C_R   0.738168 0.022091 0.361374 0.530650
C5    C     C_3   0.804783 0.132265 0.452842 -0.272082
C6    C     C_3   0.195217 0.132265 0.547158 -0.272082
C7    C     C_3   0.304783 0.632265 0.452842 -0.272083
C8    C     C_3   0.695217 0.632265 0.547158 -0.272083
C9    C     C_3   0.744267 0.053960 0.438047 0.068385
C10   C     C_3   0.255733 0.053960 0.561953 0.068386
C11   C     C_3   0.244267 0.553960 0.438047 0.068386
C12   C     C_3   0.755733 0.553960 0.561953 0.068386
C13   C     C_3   0.755274 0.086585 0.576262 0.068518
C14   C     C_3   0.244726 0.086585 0.423737 0.068518
C15   C     C_3   0.255274 0.586585 0.576262 0.068518
C16   C     C_3   0.744726 0.586585 0.423737 0.068518
C17   C     C_3   0.749362 0.954806 0.562785 -0.265769
C18   C     C_3   0.250638 0.954806 0.437215 -0.265769
C19   C     C_3   0.249362 0.454806 0.562785 -0.265769
C20   C     C_3   0.750638 0.454806 0.437215 -0.265770
C21   C     C_3   0.816533 0.131408 0.533709 -0.214809
C22   C     C_3   0.183467 0.131408 0.466291 -0.214809
C23   C     C_3   0.316533 0.631408 0.533709 -0.214809
C24   C     C_3   0.683467 0.631408 0.466291 -0.214809
C25   C     C_3   0.013829 0.189713 0.461059 -0.097814
C26   C     C_3   0.986171 0.189713 0.538941 -0.097814
C27   C     C_3   0.513829 0.689713 0.461059 -0.097814
C28   C     C_3   0.486171 0.689713 0.538941 -0.097814
C29   C     C_3   0.064147 0.395747 0.476809 -0.239324
C30   C     C_3   0.935852 0.395747 0.523191 -0.239324
C31   C     C_3   0.564147 0.895747 0.476809 -0.239324
C32   C     C_3   0.435852 0.895747 0.523191 -0.239324
C33   C     C_3   0.941911 0.371892 0.443254 -0.270466
C34   C     C_3   0.058089 0.371892 0.556746 -0.270466
C35   C     C_3   0.441911 0.871892 0.443254 -0.270466
C36   C     C_3   0.558089 0.871892 0.556746 -0.270466
C37   C     C_3   0.012746 0.321652 0.431428 0.050403
C38   C     C_3   0.987254 0.321651 0.568572 0.050403
C39   C     C_3   0.512746 0.821652 0.431428 0.050403
C40   C     C_3   0.487253 0.821651 0.568572 0.050403
C41   C     C_3   0.815896 0.045082 0.050489 -0.291462
C42   C     C_3   0.184104 0.045082 0.949511 -0.291463
C43   C     C_3   0.315896 0.545082 0.050489 -0.291463
C44   C     C_3   0.684104 0.545082 0.949511 -0.291462
C45   C     C_R   0.772175 0.118084 0.651210 0.533312
C46   C     C_R   0.227825 0.118084 0.348790 0.533312
C47   C     C_R   0.272175 0.618084 0.651210 0.533312
C48   C     C_R   0.727825 0.618084 0.348790 0.533311
C49   C     C_3   0.815545 0.037090 0.970835 -0.220090
C50   C     C_3   0.184455 0.037090 0.029164 -0.220089
C51   C     C_3   0.315545 0.537090 0.970835 -0.220089
C52   C     C_3   0.684455 0.537090 0.029164 -0.220091
C53   C     C_3   0.689607 0.010480 0.028830 -0.209125
C54   C     C_3   0.310393 0.010479 0.971169 -0.209125
C55   C     C_3   0.189607 0.510480 0.028830 -0.209125
C56   C     C_3   0.810393 0.510479 0.971169 -0.209124
C57   C     C_3   0.729317 0.205370 0.063113 0.094992
C58   C     C_3   0.270682 0.205370 0.936887 0.094996
C59   C     C_3   0.229318 0.705370 0.063113 0.094996
C60   C     C_3   0.770682 0.705370 0.936887 0.094996
C61   C     C_3   0.742853 0.074809 0.076361 0.042571
C62   C     C_3   0.257147 0.074809 0.923639 0.042570
C63   C     C_3   0.242853 0.574809 0.076361 0.042569
C64   C     C_3   0.757147 0.574809 0.923639 0.042570
C65   C     C_3   0.757886 0.111626 0.937691 0.006840
C66   C     C_3   0.242113 0.111626 0.062309 0.006840
C67   C     C_3   0.257887 0.611626 0.937692 0.006840
C68   C     C_3   0.742113 0.611626 0.062309 0.006839
C69   C     C_3   0.692237 0.043677 0.948231 -0.256160
C70   C     C_3   0.307762 0.043677 0.051769 -0.256161
C71   C     C_3   0.192237 0.543677 0.948231 -0.256161
C72   C     C_3   0.807762 0.543677 0.051769 -0.256161
C73   C     C_3   0.748883 0.225919 0.983030 -0.205952
C74   C     C_3   0.251117 0.225919 0.016970 -0.205953
C75   C     C_3   0.248883 0.725919 0.983030 -0.205953
C76   C     C_3   0.751117 0.725919 0.016970 -0.205952
C77   C     C_3   0.998347 0.475712 0.040109 -0.226169
C78   C     C_3   0.001653 0.475712 0.959891 -0.226169
C79   C     C_3   0.498347 0.975712 0.040109 -0.226169
C80   C     C_3   0.501653 0.975712 0.959891 -0.226169
C81   C     C_3   0.066367 0.285406 0.028509 -0.218566
C82   C     C_3   0.933633 0.285406 0.971491 -0.218566
C83   C     C_3   0.566367 0.785406 0.028509 -0.218566
C84   C     C_3   0.433633 0.785406 0.971491 -0.218566
C85   C     C_3   0.944929 0.282501 0.053563 -0.261935
C86   C     C_3   0.055070 0.282501 0.946437 -0.261935
C87   C     C_3   0.444930 0.782501 0.053563 -0.261936
C88   C     C_3   0.555070 0.782501 0.946437 -0.261935
C89   C     C_R   0.967067 0.340520 0.644204 0.528556
C90   C     C_R   0.032933 0.340520 0.355795 0.528556
C91   C     C_R   0.467067 0.840520 0.644204 0.528556
C92   C     C_R   0.532933 0.840520 0.355795 0.528555
C93   C     C_3   0.009676 0.349984 0.069615 0.043354
C94   C     C_3   0.990324 0.349984 0.930385 0.043354
C95   C     C_3   0.509676 0.849984 0.069615 0.043354
C96   C     C_3   0.490323 0.849984 0.930385 0.043354
C97   C     C_R   0.761634 0.534007 0.848370 0.528000
C98   C     C_R   0.238365 0.534007 0.151630 0.528000
C99   C     C_R   0.261634 0.034007 0.848370 0.528000
C100  C     C_R   0.738365 0.034007 0.151630 0.527999
C101  C     C_R   0.775225 0.137148 0.860407 0.546259
C102  C     C_R   0.224775 0.137148 0.139593 0.546260
C103  C     C_R   0.275225 0.637148 0.860407 0.546260
C104  C     C_R   0.724775 0.637148 0.139593 0.546256
C105  C     C_R   0.969146 0.353069 0.853555 0.524939
C106  C     C_R   0.030854 0.353069 0.146445 0.524939
C107  C     C_R   0.469146 0.853069 0.853555 0.524939
C108  C     C_R   0.530854 0.853069 0.146445 0.524939
C109  C     C_3   0.682681 0.124925 0.465709 -0.228245
C110  C     C_3   0.317319 0.124925 0.534291 -0.228245
C111  C     C_3   0.182681 0.624925 0.465709 -0.228245
C112  C     C_3   0.817319 0.624925 0.534291 -0.228245
C113  C     C_3   0.688236 0.141606 0.547192 -0.231806
C114  C     C_3   0.311764 0.141606 0.452808 -0.231805
C115  C     C_3   0.188236 0.641606 0.547192 -0.231806
C116  C     C_3   0.811763 0.641606 0.452808 -0.231805
C117  C     C_3   0.755047 0.937240 0.481427 -0.217240
C118  C     C_3   0.244952 0.937240 0.518573 -0.217239
C119  C     C_3   0.255047 0.437240 0.481427 -0.217239
C120  C     C_3   0.744952 0.437240 0.518573 -0.217239
Cr1   Cr    Cr6+3 0.885690 0.492860 0.745310 1.054073
Cr2   Cr    Cr6+3 0.114310 0.492860 0.254690 1.054072
Cr3   Cr    Cr6+3 0.385690 0.992860 0.745310 1.054073
Cr4   Cr    Cr6+3 0.614310 0.992860 0.254690 1.054077
Cr5   Cr    Cr6+3 0.729880 0.332270 0.748190 0.990099
Cr6   Cr    Cr6+3 0.270120 0.332270 0.251810 0.990099
Cr7   Cr    Cr6+3 0.229880 0.832270 0.748190 0.990099
Cr8   Cr    Cr6+3 0.770120 0.832270 0.251810 0.990098
Cr9   Cr    Cr6+3 0.888120 0.178590 0.753010 1.014367
Cr10  Cr    Cr6+3 0.111880 0.178590 0.246990 1.014367
Cr11  Cr    Cr6+3 0.388120 0.678590 0.753010 1.014368
Cr12  Cr    Cr6+3 0.611880 0.678590 0.246990 1.014370
H1    H     H_    0.635167 0.083437 0.450680 0.133621
H2    H     H_    0.364833 0.083437 0.549320 0.133620
H3    H     H_    0.135167 0.583437 0.450680 0.133620
H4    H     H_    0.864833 0.583437 0.549320 0.133620
H5    H     H_    0.856396 0.065060 0.545175 0.125374
H6    H     H_    0.143604 0.065060 0.454825 0.125374
H7    H     H_    0.356396 0.565060 0.545175 0.125374
H8    H     H_    0.643604 0.565060 0.454825 0.125374
H9    H     H_    0.807661 0.908310 0.471961 0.122688
H10   H     H_    0.192339 0.908310 0.528039 0.122688
H11   H     H_    0.307661 0.408310 0.471961 0.122687
H12   H     H_    0.692339 0.408310 0.528039 0.122688
H13   H     H_    0.790346 0.905894 0.591328 0.117720
H14   H     H_    0.209654 0.905894 0.408672 0.117720
H15   H     H_    0.290346 0.405894 0.591328 0.117720
H16   H     H_    0.709654 0.405894 0.408672 0.117721
H17   H     H_    0.064969 0.168904 0.470194 0.143642
H18   H     H_    0.935031 0.168904 0.529806 0.143641
H19   H     H_    0.564969 0.668904 0.470194 0.143642
H20   H     H_    0.435031 0.668904 0.529806 0.143641
H21   H     H_    0.616250 0.883511 0.459570 0.108355
H22   H     H_    0.383750 0.883511 0.540429 0.108355
H23   H     H_    0.116250 0.383511 0.459570 0.108355
H24   H     H_    0.883750 0.383511 0.540429 0.108355
H25   H     H_    0.597429 0.809149 0.575105 0.105732
H26   H     H_    0.402571 0.809149 0.424895 0.105732
H27   H     H_    0.097429 0.309149 0.575105 0.105732
H28   H     H_    0.902571 0.309149 0.424895 0.105732
H29   H     H_    0.933982 0.454815 0.413096 0.125276
H30   H     H_    0.066018 0.454815 0.586904 0.125277
H31   H     H_    0.433982 0.954815 0.413096 0.125277
H32   H     H_    0.566018 0.954815 0.586904 0.125277
H33   H     H_    0.949885 0.488907 0.531398 0.134806
H34   H     H_    0.050115 0.488907 0.468602 0.134806
H35   H     H_    0.449885 0.988907 0.531398 0.134806
H36   H     H_    0.550115 0.988907 0.468602 0.134806
H37   H     H_    0.837816 0.960810 0.069324 0.198685
H38   H     H_    0.162184 0.960810 0.930675 0.198685
H39   H     H_    0.337816 0.460810 0.069324 0.198685
H40   H     H_    0.662184 0.460810 0.930675 0.198685
H41   H     H_    0.680031 0.212175 0.439370 0.106939
H42   H     H_    0.319969 0.212175 0.560630 0.106938
H43   H     H_    0.180031 0.712175 0.439370 0.106938
H44   H     H_    0.819969 0.712175 0.560630 0.106938
H45   H     H_    0.851142 0.113572 0.069529 0.109305
H46   H     H_    0.148858 0.113572 0.930470 0.109305
H47   H     H_    0.351142 0.613572 0.069529 0.109305
H48   H     H_    0.648857 0.613572 0.930470 0.109305
H49   H     H_    0.867064 0.052049 0.951595 0.194583
H50   H     H_    0.132936 0.052049 0.048405 0.194583
H51   H     H_    0.367064 0.552049 0.951595 0.194583
H52   H     H_    0.632936 0.552049 0.048405 0.194584
H53   H     H_    0.802779 0.946827 0.957917 0.226727
H54   H     H_    0.197220 0.946827 0.042083 0.226727
H55   H     H_    0.302779 0.446827 0.957917 0.226727
H56   H     H_    0.697220 0.446827 0.042083 0.226724
H57   H     H_    0.703171 0.922043 0.035569 0.081039
H58   H     H_    0.296829 0.922043 0.964431 0.081039
H59   H     H_    0.203171 0.422043 0.035569 0.081039
H60   H     H_    0.796829 0.422043 0.964431 0.081039
H61   H     H_    0.690373 0.963725 0.914285 0.099606
H62   H     H_    0.309627 0.963725 0.085715 0.099607
H63   H     H_    0.190373 0.463725 0.914285 0.099606
H64   H     H_    0.809627 0.463725 0.085715 0.099604
H65   H     H_    0.765036 0.256227 0.097833 0.069734
H66   H     H_    0.234964 0.256227 0.902167 0.069743
H67   H     H_    0.265036 0.756227 0.097833 0.069744
H68   H     H_    0.734964 0.756227 0.902167 0.069743
H69   H     H_    0.800232 0.256193 0.988069 0.066119
H70   H     H_    0.199768 0.256193 0.011931 0.066119
H71   H     H_    0.300232 0.756193 0.988069 0.066119
H72   H     H_    0.699768 0.756193 0.011931 0.066119
H73   H     H_    0.715163 0.289150 0.955393 0.168076
H74   H     H_    0.284837 0.289150 0.044607 0.168076
H75   H     H_    0.215163 0.789150 0.955393 0.168076
H76   H     H_    0.784837 0.789150 0.044607 0.168076
H77   H     H_    0.638369 0.019802 0.048243 0.179463
H78   H     H_    0.361631 0.019802 0.951757 0.179464
H79   H     H_    0.138369 0.519802 0.048243 0.179464
H80   H     H_    0.861631 0.519802 0.951757 0.179464
H81   H     H_    0.685220 0.234845 0.560391 0.134420
H82   H     H_    0.314779 0.234845 0.439609 0.134419
H83   H     H_    0.185220 0.734845 0.560391 0.134420
H84   H     H_    0.814779 0.734845 0.439609 0.134419
H85   H     H_    0.648682 0.100503 0.932936 0.172114
H86   H     H_    0.351318 0.100503 0.067064 0.172113
H87   H     H_    0.148682 0.600503 0.932936 0.172114
H88   H     H_    0.851318 0.600503 0.067064 0.172114
H89   H     H_    0.034284 0.540676 0.059190 0.216343
H90   H     H_    0.965716 0.540676 0.940809 0.216343
H91   H     H_    0.534284 0.040676 0.059190 0.216342
H92   H     H_    0.465716 0.040676 0.940809 0.216343
H93   H     H_    0.948675 0.508808 0.057580 0.128864
H94   H     H_    0.051325 0.508808 0.942420 0.128864
H95   H     H_    0.448675 0.008808 0.057580 0.128864
H96   H     H_    0.551325 0.008808 0.942420 0.128864
H97   H     H_    0.612689 0.829515 0.043147 0.099970
H98   H     H_    0.387311 0.829515 0.956853 0.099971
H99   H     H_    0.112689 0.329515 0.043147 0.099970
H100  H     H_    0.887311 0.329515 0.956853 0.099970
H101  H     H_    0.598987 0.821313 0.918550 0.097536
H102  H     H_    0.401013 0.821313 0.081450 0.097536
H103  H     H_    0.098987 0.321313 0.918550 0.097536
H104  H     H_    0.901013 0.321313 0.081450 0.097536
H105  H     H_    0.951502 0.190690 0.072336 0.136898
H106  H     H_    0.048498 0.190690 0.927663 0.136898
H107  H     H_    0.451502 0.690690 0.072336 0.136898
H108  H     H_    0.548498 0.690690 0.927663 0.136898
H109  H     H_    0.930922 0.194528 0.952201 0.147047
H110  H     H_    0.069078 0.194528 0.047799 0.147047
H111  H     H_    0.430922 0.694528 0.952201 0.147047
H112  H     H_    0.569078 0.694528 0.047799 0.147047
H113  H     H_    0.644015 0.100979 0.573322 0.104578
H114  H     H_    0.355985 0.100979 0.426677 0.104578
H115  H     H_    0.144015 0.600979 0.573322 0.104578
H116  H     H_    0.855985 0.600979 0.426677 0.104578
H117  H     H_    0.722123 0.867374 0.462471 0.109592
H118  H     H_    0.277877 0.867374 0.537529 0.109592
H119  H     H_    0.222123 0.367374 0.462471 0.109592
H120  H     H_    0.777876 0.367374 0.537529 0.109592
H121  H     H_    0.700328 0.921261 0.582339 0.106423
H122  H     H_    0.299672 0.921261 0.417660 0.106423
H123  H     H_    0.200328 0.421261 0.582339 0.106423
H124  H     H_    0.799672 0.421261 0.417660 0.106423
H125  H     H_    0.849409 0.099565 0.425089 0.132912
H126  H     H_    0.150591 0.099564 0.574910 0.132912
H127  H     H_    0.349409 0.599565 0.425089 0.132912
H128  H     H_    0.650591 0.599564 0.574910 0.132912
H129  H     H_    0.795642 0.222387 0.433075 0.103931
H130  H     H_    0.204358 0.222387 0.566925 0.103931
H131  H     H_    0.295642 0.722387 0.433075 0.103931
H132  H     H_    0.704358 0.722387 0.566925 0.103931
H133  H     H_    0.834096 0.216918 0.553188 0.107000
H134  H     H_    0.165904 0.216918 0.446812 0.107000
H135  H     H_    0.334096 0.716918 0.553188 0.107000
H136  H     H_    0.665904 0.716918 0.446812 0.107000
O1    O     O_R   0.957210 0.449410 0.665480 -0.527488
O2    O     O_R   0.042790 0.449410 0.334520 -0.527488
O3    O     O_R   0.457210 0.949410 0.665480 -0.527488
O4    O     O_R   0.542790 0.949410 0.334520 -0.527487
O5    O     O_R   0.736260 0.212010 0.826560 -0.509929
O6    O     O_R   0.263740 0.212010 0.173440 -0.509929
O7    O     O_R   0.236260 0.712010 0.826560 -0.509929
O8    O     O_R   0.763740 0.712010 0.173440 -0.509929
O9    O     O_R   0.832520 0.095300 0.836000 -0.469948
O10   O     O_R   0.167480 0.095300 0.164000 -0.469947
O11   O     O_R   0.332520 0.595300 0.836000 -0.469948
O12   O     O_R   0.667480 0.595300 0.164000 -0.469948
O13   O     O_R   0.946380 0.253940 0.826940 -0.513175
O14   O     O_R   0.053620 0.253940 0.173060 -0.513175
O15   O     O_R   0.446380 0.753940 0.826940 -0.513175
O16   O     O_R   0.553620 0.753940 0.173060 -0.513175
O17   O     O_3   0.834560 0.334570 0.748840 -0.289975
O18   O     O_3   0.165440 0.334570 0.251160 -0.289976
O19   O     O_3   0.334560 0.834570 0.748840 -0.289975
O20   O     O_3   0.665440 0.834570 0.251160 -0.289976
O21   O     O_R   0.820730 0.541240 0.668250 -0.516748
O22   O     O_R   0.179270 0.541240 0.331750 -0.516749
O23   O     O_R   0.320730 0.041240 0.668250 -0.516748
O24   O     O_R   0.679270 0.041240 0.331750 -0.516747
O25   O     O_R   0.714240 0.455060 0.663710 -0.547079
O26   O     O_R   0.285760 0.455060 0.336290 -0.547078
O27   O     O_R   0.214240 0.955060 0.663710 -0.547079
O28   O     O_R   0.785760 0.955060 0.336290 -0.547079
O29   O     O_R   0.736780 0.204870 0.675910 -0.516171
O30   O     O_R   0.263220 0.204870 0.324090 -0.516171
O31   O     O_R   0.236780 0.704870 0.675910 -0.516171
O32   O     O_R   0.763220 0.704870 0.324090 -0.516171
O33   O     O_R   0.833070 0.087590 0.673490 -0.535287
O34   O     O_R   0.166930 0.087590 0.326510 -0.535288
O35   O     O_R   0.333070 0.587590 0.673490 -0.535287
O36   O     O_R   0.666930 0.587590 0.326510 -0.535286
O37   O     O_R   0.946890 0.246800 0.676300 -0.536687
O38   O     O_R   0.053110 0.246800 0.323700 -0.536688
O39   O     O_R   0.446890 0.746800 0.676300 -0.536687
O40   O     O_R   0.553110 0.746800 0.323700 -0.536688
O41   O     O_R   0.956650 0.457120 0.827980 -0.491949
O42   O     O_R   0.043350 0.457120 0.172020 -0.491949
O43   O     O_R   0.456650 0.957120 0.827980 -0.491949
O44   O     O_R   0.543350 0.957120 0.172020 -0.491949
O45   O     O_R   0.820220 0.548390 0.818890 -0.449244
O46   O     O_R   0.179780 0.548390 0.181110 -0.449244
O47   O     O_R   0.320220 0.048390 0.818890 -0.449244
O48   O     O_R   0.679780 0.048390 0.181110 -0.449242
O49   O     O_R   0.713680 0.462770 0.826210 -0.541968
O50   O     O_R   0.286320 0.462770 0.173790 -0.541968
O51   O     O_R   0.213680 0.962770 0.826210 -0.541968
O52   O     O_R   0.786320 0.962770 0.173790 -0.541968
C121  C     C_3   0.985715 0.097254 0.404696 -0.262382
C122  C     C_3   0.965038 0.972397 0.425001 -0.348278
C123  C     C_3   0.940166 0.904204 0.359176 -0.424369
H137  H     H_    0.906813 0.958893 0.324728 0.195399
H138  H     H_    0.983967 0.876677 0.326600 0.150207
H139  H     H_    0.912416 0.824416 0.375946 0.148167
H140  H     H_    0.010155 0.923198 0.443614 0.154983
H141  H     H_    0.925172 0.972618 0.465571 0.155393
H142  H     H_    0.944952 0.138521 0.371905 0.146536
H143  H     H_    0.027724 0.076270 0.368468 0.204798
C124  C     C_3   0.014285 0.097254 0.595304 -0.262382
C125  C     C_3   0.034961 0.972397 0.574999 -0.348278
C126  C     C_3   0.059833 0.904203 0.640824 -0.424370
H144  H     H_    0.093187 0.958892 0.675271 0.195400
H145  H     H_    0.016033 0.876679 0.673400 0.150208
H146  H     H_    0.087582 0.824414 0.624054 0.148166
H147  H     H_    0.989845 0.923198 0.556386 0.154983
H148  H     H_    0.074827 0.972617 0.534428 0.155394
H149  H     H_    0.055047 0.138521 0.628095 0.146536
H150  H     H_    0.972276 0.076270 0.631531 0.204798
C127  C     C_3   0.485715 0.597254 0.404696 -0.262382
C128  C     C_3   0.465038 0.472397 0.425001 -0.348278
C129  C     C_3   0.440166 0.404204 0.359176 -0.424369
H151  H     H_    0.406813 0.458892 0.324728 0.195400
H152  H     H_    0.483967 0.376678 0.326600 0.150210
H153  H     H_    0.412417 0.324415 0.375946 0.148166
H154  H     H_    0.510155 0.423198 0.443614 0.154983
H155  H     H_    0.425173 0.472617 0.465571 0.155393
H156  H     H_    0.444952 0.638521 0.371905 0.146536
H157  H     H_    0.527724 0.576270 0.368469 0.204798
C130  C     C_3   0.514285 0.597254 0.595304 -0.262382
C131  C     C_3   0.534962 0.472397 0.574999 -0.348278
C132  C     C_3   0.559833 0.404203 0.640824 -0.424370
H158  H     H_    0.593187 0.458892 0.675271 0.195400
H159  H     H_    0.516033 0.376679 0.673400 0.150208
H160  H     H_    0.587582 0.324414 0.624054 0.148166
H161  H     H_    0.489845 0.423198 0.556386 0.154983
H162  H     H_    0.574827 0.472617 0.534428 0.155394
H163  H     H_    0.555048 0.638521 0.628095 0.146536
H164  H     H_    0.472276 0.576270 0.631531 0.204798
S1    S     S_3+6 0.644121 0.258825 0.086430 -0.050256
O53   O     O_2   0.607607 0.306122 0.021492 -0.295355
O54   O     O_2   0.597551 0.172996 0.120357 -0.264210
O55   O     O_3   0.654097 0.365531 0.147443 -0.516267
H165  H     H_    0.676937 0.327340 0.188822 0.337855
S2    S     S_3+6 0.355879 0.258825 0.913570 -0.050259
O56   O     O_2   0.392392 0.306123 0.978508 -0.295354
O57   O     O_2   0.402449 0.172996 0.879643 -0.264217
O58   O     O_3   0.345902 0.365531 0.852557 -0.516274
H166  H     H_    0.323073 0.327334 0.811173 0.337863
S3    S     S_3+6 0.144121 0.758825 0.086430 -0.050259
O59   O     O_2   0.107607 0.806123 0.021492 -0.295354
O60   O     O_2   0.097551 0.672996 0.120357 -0.264218
O61   O     O_3   0.154098 0.865531 0.147443 -0.516273
H167  H     H_    0.176926 0.827333 0.188828 0.337862
S4    S     S_3+6 0.855879 0.758825 0.913570 -0.050259
O62   O     O_2   0.892392 0.806123 0.978508 -0.295355
O63   O     O_2   0.902449 0.672996 0.879643 -0.264217
O64   O     O_3   0.845902 0.865531 0.852557 -0.516274
H168  H     H_    0.823073 0.827334 0.811173 0.337863

loop_
_geom_bond_atom_site_label_1
_geom_bond_atom_site_label_2
_ccdc_geom_bond_type
C78   H94   S    
C82   C94   S    
C119  H11   S    
C7    H127  S    
C120  H12   S    
C41   C61   S    
C116  H84   S    
C53   C69   S    
C104  O12   A    
C56   H60   S    
C120  H120  S    
C43   C63   S    
Cr5   O5    S    
C126  H144  S    
C44   C64   S    
C70   H86   S    
C63   C98   S    
C51   H51   S    
C128  H154  S    
C109  H41   S    
C28   C40   S    
C121  H142  S    
C30   C38   S    
C79   H95   S    
C42   H38   S    
C75   H75   S    
C56   C72   S    
C105  O13   A    
C21   H5    S    
C8    H132  S    
C84   H98   S    
C18   C118  S    
C81   C86   S    
C108  O16   A    
S4    O64   S    
C29   H23   S    
C30   H24   S    
C83   C88   S    
C48   O36   A    
C5    H129  S    
C90   O2    A    
C72   H88   S    
C41   C49   S    
C132  H159  S    
Cr8   O32   S    
S1    O55   S    
Cr5   O17   S    
Cr2   O46   S    
C109  H1    S    
C123  H137  S    
Cr7   O19   S    
Cr8   O20   S    
C118  H118  S    
C128  C129  S    
C26   C38   S    
Cr10  O38   S    
C14   C114  S    
C41   H37   S    
C83   H112  S    
C60   C76   S    
C35   H31   S    
C55   H59   S    
C81   H110  S    
C33   H29   S    
C44   H40   S    
C47   O31   A    
C22   H134  S    
C54   C70   S    
C68   C72   S    
Cr9   O33   S    
C131  C132  S    
C69   H61   S    
C115  H83   S    
C98   O46   A    
C102  O6    A    
C99   O51   A    
C28   C130  S    
C32   H22   S    
C19   H123  S    
C64   C97   S    
C17   H13   S    
C15   C115  S    
C20   C120  S    
Cr7   O27   S    
C126  H146  S    
Cr8   O28   S    
C43   H39   S    
C57   H65   S    
C52   H52   S    
Cr7   O7    S    
Cr4   O24   S    
C72   H64   S    
C57   C61   S    
C82   C85   S    
C59   C63   S    
C60   C64   S    
Cr9   O17   S    
C13   C45   S    
C124  H149  S    
C66   C70   S    
C42   H46   S    
C113  H113  S    
C23   H135  S    
C86   H106  S    
C95   C108  S    
C60   H68   S    
C62   C99   S    
C5    C21   S    
C121  C122  S    
C81   H99   S    
C31   C36   S    
C54   C62   S    
C123  H138  S    
C48   O32   A    
C55   C71   S    
C76   H76   S    
Cr6   O26   S    
C6    C22   S    
C131  H162  S    
C114  H82   S    
C130  C131  S    
Cr2   O22   S    
C65   C101  S    
Cr10  O18   S    
C43   C51   S    
Cr11  O15   S    
C67   C103  S    
C18   H122  S    
C88   H101  S    
C37   C90   S    
Cr11  O35   S    
C78   C94   S    
C66   C74   S    
O55   H165  S    
C25   H17   S    
C57   C73   S    
O61   H167  S    
C105  O41   A    
C85   C93   S    
C122  H141  S    
C107  O43   A    
C87   C95   S    
Cr5   O49   S    
C56   C64   S    
C7    H131  S    
C2    O22   A    
C45   O33   A    
C104  O8    A    
C85   H105  S    
C33   H28   S    
C34   H27   S    
C44   C52   S    
Cr6   O6    S    
C50   H50   S    
C1    C12   S    
Cr9   O37   S    
C112  H4    S    
Cr6   O18   S    
C2    C11   S    
S4    O63   D    
C110  H42   S    
Cr12  O12   S    
C87   H107  S    
C125  C126  S    
C59   S3    S    
C75   H71   S    
C15   C47   S    
C25   C26   S    
C106  O14   A    
C8    H128  S    
C57   S1    S    
C5    C9    S    
C119  H119  S    
C93   C106  S    
C127  H157  S    
C71   H63   S    
C8    C12   S    
S3    O61   S    
C5    H125  S    
C25   C121  S    
C6    H130  S    
C51   C67   S    
S2    O58   S    
C36   H25   S    
C78   H90   S    
C49   H49   S    
C112  H44   S    
C42   C50   S    
C129  H152  S    
Cr3   O47   S    
C110  H2    S    
C61   C100  S    
C67   C75   S    
Cr4   O44   S    
C50   H54   S    
Cr1   O1    S    
C112  C116  S    
C130  H164  S    
C58   C74   S    
Cr3   O3    S    
C73   H73   S    
Cr4   O4    S    
C54   H58   S    
C30   H33   S    
C34   H30   S    
C125  H147  S    
C79   H91   S    
C68   C76   S    
C13   C17   S    
C98   O50   A    
C14   C22   S    
C99   O47   A    
C103  O7    A    
C128  H155  S    
C13   C21   S    
C27   C39   S    
C7    C23   S    
C8    C24   S    
C40   C91   S    
Cr7   O31   S    
C54   H78   S    
C49   H53   S    
Cr1   O41   S    
Cr3   O43   S    
C52   H56   S    
C4    C9    S    
C53   H57   S    
C24   H136  S    
C91   O39   A    
C58   C62   S    
C88   C96   S    
C94   C105  S    
C77   H93   S    
C12   C112  S    
C44   H48   S    
C132  H158  S    
O64   H168  S    
C14   C46   S    
C77   C78   S    
C15   C19   S    
S1    O54   D    
C43   H47   S    
C69   H85   S    
C101  O9    A    
C92   O4    A    
C108  O44   A    
S3    O59   D    
C88   H108  S    
C71   H87   S    
C2    O26   A    
S2    O56   D    
Cr11  O39   S    
C21   H133  S    
C58   S2    S    
Cr7   O51   S    
C116  H116  S    
Cr8   O52   S    
C60   S4    S    
C3    O23   A    
Cr3   O23   S    
Cr11  O11   S    
C17   C117  S    
C42   C62   S    
C122  C123  S    
C19   C119  S    
Cr10  O34   S    
Cr12  O40   S    
C16   C116  S    
C100  O48   A    
C20   H124  S    
C115  H115  S    
C126  H145  S    
C9    C109  S    
C11   C111  S    
C26   H18   S    
C117  H117  S    
C106  O42   A    
C74   H70   S    
C18   H14   S    
C29   C34   S    
C33   C37   S    
C121  H143  S    
C82   H109  S    
C45   O29   A    
C117  H9    S    
C124  C125  S    
C4    O24   A    
C79   C95   S    
C89   O37   A    
C80   H92   S    
Cr5   O29   S    
C70   H62   S    
C76   H72   S    
Cr1   O17   S    
C80   H96   S    
Cr3   O19   S    
Cr4   O20   S    
Cr12  O16   S    
C96   C107  S    
C111  H43   S    
C39   C92   S    
C132  H160  S    
C41   H45   S    
C27   H19   S    
C14   C18   S    
C107  O15   A    
C68   C104  S    
C6    C10   S    
C1    O25   A    
C92   O40   A    
C22   H6    S    
C6    H126  S    
C35   H26   S    
C103  O11   A    
C111  H3    S    
C114  H114  S    
C73   H69   S    
C65   C69   S    
C77   C93   S    
C10   C110  S    
C84   H111  S    
C67   C71   S    
C19   H15   S    
C51   H55   S    
Cr2   O2    S    
C3    O27   A    
C31   H36   S    
C53   H77   S    
Cr12  O36   S    
C32   H35   S    
C29   C37   S    
C36   H32   S    
C46   O30   A    
C29   H34   S    
C129  H151  S    
C85   H104  S    
C9    C117  S    
C66   C102  S    
C35   C39   S    
C84   C87   S    
C113  H81   S    
C11   C119  S    
C16   C48   S    
C26   C124  S    
C127  C128  S    
C7    C11   S    
C38   C89   S    
C17   H121  S    
C87   H102  S    
C49   C65   S    
C89   O1    A    
C23   H7    S    
C56   H80   S    
C91   O3    A    
C124  H150  S    
Cr1   O45   S    
Cr2   O42   S    
C65   C73   S    
C84   C96   S    
Cr4   O48   S    
Cr8   O8    S    
C86   C94   S    
C25   C37   S    
C12   C120  S    
C127  H156  S    
C59   H67   S    
S3    O60   D    
Cr9   O9    S    
C80   C96   S    
C52   C68   S    
C16   C20   S    
C15   C23   S    
C16   C24   S    
C131  H161  S    
C97   O45   A    
C101  O5    A    
C53   C61   S    
C102  O10   A    
C97   O49   A    
C31   H21   S    
C130  H163  S    
C1    O21   A    
C32   C35   S    
C36   C40   S    
C125  H148  S    
Cr6   O50   S    
C55   C63   S    
Cr10  O10   S    
C46   O34   A    
C10   C118  S    
C81   C93   S    
C122  H140  S    
C83   C95   S    
C20   H16   S    
C82   H100  S    
Cr9   O13   S    
C50   C66   S    
C100  O52   A    
C77   H89   S    
C28   H20   S    
C24   H8    S    
C59   C75   S    
S4    O62   D    
O58   H166  S    
C74   H74   S    
C27   C127  S    
C110  C114  S    
C58   H66   S    
C30   C33   S    
C34   C38   S    
C83   H97   S    
C47   O35   A    
C4    O28   A    
C118  H10   S    
Cr5   O25   S    
C90   O38   A    
Cr6   O30   S    
C109  C113  S    
S1    O53   D    
C86   H103  S    
C123  H139  S    
Cr1   O21   S    
Cr2   O18   S    
Cr10  O14   S    
C3    C10   S    
Cr11  O19   S    
Cr12  O20   S    
C31   C39   S    
C32   C40   S    
S2    O57   D    
C55   H79   S    
C79   C80   S    
C129  H153  S    
C27   C28   S    
C111  C115  S    
C13   C113  S    
