data_str_m3_o40_o41_f0_fof.sym.188
_audit_creation_date              2012-12-10T16:37:55-0500
_audit_creation_method            fapswitch 2.2
_symmetry_space_group_name_H-M    P1
_symmetry_Int_Tables_number       1
_space_group_crystal_system       triclinic
_cell_length_a                    28.111802
_cell_length_b                    18.370986
_cell_length_c                    16.716321
_cell_angle_alpha                 90.000012
_cell_angle_beta                  61.021567
_cell_angle_gamma                 90.000121
_cell_volume                      7552.1687919

loop_
_atom_site_label
_atom_site_type_symbol
_atom_type_description
_atom_site_fract_x
_atom_site_fract_y
_atom_site_fract_z
_atom_type_partial_charge
C1    C     C_R   0.699262 0.262510 0.677849 0.928479
C2    C     C_R   0.300791 0.737687 0.322131 0.905738
C3    C     C_R   0.300739 0.262509 0.322151 0.928478
C4    C     C_R   0.699209 0.737687 0.677868 0.905728
C5    C     C_R   0.199262 0.762509 0.677849 0.928477
C6    C     C_R   0.800791 0.237688 0.322131 0.905788
C7    C     C_R   0.800739 0.762508 0.322151 0.928475
C8    C     C_R   0.199209 0.237687 0.677868 0.905750
C9    C     C_R   0.917278 0.499997 0.450173 0.064813
C10   C     C_R   0.082722 0.499996 0.549825 0.064813
C11   C     C_R   0.417278 0.999997 0.450175 0.064813
C12   C     C_R   0.582722 0.999996 0.549826 0.064813
C13   C     C_R   0.076766 0.368592 0.561190 -0.240409
C14   C     C_R   0.923221 0.631401 0.438836 -0.239670
C15   C     C_R   0.923234 0.368593 0.438807 -0.240408
C16   C     C_R   0.076779 0.631400 0.561163 -0.239670
C17   C     C_R   0.576766 0.868592 0.561191 -0.240409
C18   C     C_R   0.423221 0.131400 0.438838 -0.239671
C19   C     C_R   0.423234 0.868593 0.438808 -0.240409
C20   C     C_R   0.576779 0.131400 0.561164 -0.239672
C21   C     C_R   0.716423 0.259033 0.958610 0.022868
C22   C     C_R   0.282986 0.740371 0.042064 0.020414
C23   C     C_R   0.283578 0.259031 0.041390 0.022870
C24   C     C_R   0.717014 0.740370 0.957935 0.020413
C25   C     C_R   0.216423 0.759033 0.958609 0.022870
C26   C     C_R   0.782985 0.240370 0.042065 0.020414
C27   C     C_R   0.783578 0.759031 0.041390 0.022870
C28   C     C_R   0.217015 0.240369 0.957935 0.020414
C29   C     C_R   0.763622 0.215651 0.915506 0.015128
C30   C     C_R   0.235725 0.783556 0.085253 -0.010138
C31   C     C_R   0.236379 0.215650 0.084494 0.015127
C32   C     C_R   0.764276 0.783554 0.914746 -0.010140
C33   C     C_R   0.263622 0.715651 0.915505 0.015127
C34   C     C_R   0.735724 0.283556 0.085253 -0.010127
C35   C     C_R   0.736377 0.715651 0.084495 0.015127
C36   C     C_R   0.264277 0.283554 0.914746 -0.010136
C37   C     C_R   0.798237 0.209084 0.955345 0.081361
C38   C     C_R   0.201009 0.789951 0.045520 0.079407
C39   C     C_R   0.201764 0.209083 0.044655 0.081361
C40   C     C_R   0.798992 0.789948 0.954480 0.079407
C41   C     C_R   0.298237 0.709085 0.955345 0.081362
C42   C     C_R   0.701009 0.289952 0.045520 0.079408
C43   C     C_R   0.701762 0.709085 0.044656 0.081362
C44   C     C_R   0.298992 0.289949 0.954479 0.079407
C45   C     C_R   0.636908 0.314244 0.957588 0.069283
C46   C     C_R   0.362647 0.685460 0.042819 0.072413
C47   C     C_R   0.363094 0.314242 0.042411 0.069282
C48   C     C_R   0.637352 0.685461 0.957182 0.072413
C49   C     C_R   0.136907 0.814243 0.957588 0.069283
C50   C     C_R   0.862647 0.185459 0.042819 0.072413
C51   C     C_R   0.863093 0.814241 0.042412 0.069283
C52   C     C_R   0.137353 0.185459 0.957181 0.072413
C53   C     C_R   0.608982 0.334150 0.908021 -0.186170
C54   C     C_R   0.390758 0.665768 0.092171 -0.185760
C55   C     C_R   0.391019 0.334149 0.091979 -0.186172
C56   C     C_R   0.609241 0.665769 0.907830 -0.185761
C57   C     C_R   0.108982 0.834149 0.908021 -0.186172
C58   C     C_R   0.890758 0.165768 0.092170 -0.185759
C59   C     C_R   0.891018 0.834148 0.091979 -0.186173
C60   C     C_R   0.109242 0.165769 0.907830 -0.185759
C61   C     C_R   0.622844 0.301599 0.824208 -0.117532
C62   C     C_R   0.377153 0.698753 0.175658 -0.102340
C63   C     C_R   0.377157 0.301598 0.175792 -0.117529
C64   C     C_R   0.622846 0.698753 0.824342 -0.102333
C65   C     C_R   0.122843 0.801598 0.824208 -0.117528
C66   C     C_R   0.877154 0.198753 0.175658 -0.102362
C67   C     C_R   0.877157 0.801597 0.175792 -0.117528
C68   C     C_R   0.122847 0.198753 0.824342 -0.102342
C69   C     C_R   0.672009 0.264374 0.778850 -0.172598
C70   C     C_R   0.328093 0.736284 0.221013 -0.186790
C71   C     C_R   0.327992 0.264372 0.221150 -0.172599
C72   C     C_R   0.671908 0.736285 0.778987 -0.186797
C73   C     C_R   0.172008 0.764373 0.778850 -0.172599
C74   C     C_R   0.828093 0.236285 0.221013 -0.186762
C75   C     C_R   0.827992 0.764370 0.221150 -0.172596
C76   C     C_R   0.171908 0.236284 0.778987 -0.186785
C77   C     C_R   0.699105 0.240492 0.828512 0.017601
C78   C     C_R   0.300728 0.759956 0.171575 -0.037583
C79   C     C_R   0.300896 0.240490 0.171488 0.017599
C80   C     C_R   0.699272 0.759956 0.828424 -0.037590
C81   C     C_R   0.199105 0.740491 0.828512 0.017599
C82   C     C_R   0.800728 0.259954 0.171575 -0.037568
C83   C     C_R   0.800895 0.740488 0.171488 0.017595
C84   C     C_R   0.199273 0.259955 0.828424 -0.037582
C85   C     C_R   0.691040 0.129376 0.535780 0.910325
C86   C     C_R   0.308958 0.870621 0.464229 0.895371
C87   C     C_R   0.308960 0.129376 0.464220 0.910324
C88   C     C_R   0.691042 0.870621 0.535770 0.895367
C89   C     C_R   0.191040 0.629376 0.535780 0.910325
C90   C     C_R   0.808958 0.370621 0.464229 0.895394
C91   C     C_R   0.808960 0.629376 0.464220 0.910323
C92   C     C_R   0.191042 0.370622 0.535770 0.895376
C93   C     C_R   0.684254 0.271458 0.914688 0.023772
C94   C     C_R   0.315350 0.728443 0.085696 0.039286
C95   C     C_R   0.315747 0.271456 0.085312 0.023773
C96   C     C_R   0.684650 0.728444 0.914303 0.039290
C97   C     C_R   0.184254 0.771458 0.914687 0.023773
C98   C     C_R   0.815350 0.228442 0.085697 0.039272
C99   C     C_R   0.815747 0.771455 0.085312 0.023773
C100  C     C_R   0.184651 0.228442 0.914303 0.039284
C101  C     C_R   0.617454 0.331576 0.050790 -0.163479
C102  C     C_R   0.381830 0.667593 0.949814 -0.169621
C103  C     C_R   0.382548 0.331572 0.949209 -0.163478
C104  C     C_R   0.618169 0.667595 0.050187 -0.169622
C105  C     C_R   0.117454 0.831574 0.050790 -0.163478
C106  C     C_R   0.881829 0.167592 0.949814 -0.169617
C107  C     C_R   0.882547 0.831572 0.949210 -0.163480
C108  C     C_R   0.118170 0.167593 0.050186 -0.169620
C109  C     C_R   0.649309 0.321958 0.092661 -0.233962
C110  C     C_R   0.349780 0.676767 0.908258 -0.232602
C111  C     C_R   0.350693 0.321954 0.907337 -0.233962
C112  C     C_R   0.650219 0.676768 0.091743 -0.232601
C113  C     C_R   0.149309 0.821957 0.092661 -0.233962
C114  C     C_R   0.849780 0.176766 0.908258 -0.232602
C115  C     C_R   0.850693 0.821953 0.907338 -0.233962
C116  C     C_R   0.150220 0.176766 0.091742 -0.232602
C117  C     C_R   0.738018 0.183242 0.798804 0.256924
C118  C     C_R   0.261630 0.817112 0.201787 0.260841
C119  C     C_R   0.261982 0.183241 0.201197 0.256924
C120  C     C_R   0.738371 0.817112 0.798213 0.260847
C121  C     C_R   0.238019 0.683242 0.798803 0.256925
C122  C     C_R   0.761629 0.317109 0.201788 0.260818
C123  C     C_R   0.761979 0.683241 0.201199 0.256922
C124  C     C_R   0.238372 0.317111 0.798213 0.260838
C125  C     C_R   0.771879 0.174972 0.838283 -0.299542
C126  C     C_R   0.227506 0.824595 0.162174 -0.249396
C127  C     C_R   0.228121 0.174972 0.161717 -0.299540
C128  C     C_R   0.772496 0.824594 0.837824 -0.249389
C129  C     C_R   0.271880 0.674973 0.838282 -0.299540
C130  C     C_R   0.727506 0.324595 0.162175 -0.249419
C131  C     C_R   0.728118 0.674973 0.161719 -0.299536
C132  C     C_R   0.272495 0.324594 0.837824 -0.249401
C133  C     C_R   0.070518 0.104868 0.937740 0.919850
C134  C     C_R   0.929689 0.894999 0.062066 0.921273
C135  C     C_R   0.929482 0.104868 0.062260 0.919852
C136  C     C_R   0.070311 0.894999 0.937934 0.921277
C137  C     C_R   0.570518 0.604868 0.937740 0.919848
C138  C     C_R   0.429690 0.394999 0.062066 0.921276
C139  C     C_R   0.429482 0.604867 0.062260 0.919849
C140  C     C_R   0.570311 0.394999 0.937934 0.921277
C141  C     C_R   0.537804 0.132173 0.532232 0.111212
C142  C     C_R   0.462206 0.867822 0.467747 0.111063
C143  C     C_R   0.462195 0.132173 0.467770 0.111211
C144  C     C_R   0.537794 0.867821 0.532253 0.111062
C145  C     C_R   0.037805 0.632173 0.532230 0.111211
C146  C     C_R   0.962206 0.367822 0.467745 0.111063
C147  C     C_R   0.962196 0.632173 0.467768 0.111211
C148  C     C_R   0.037794 0.367821 0.532252 0.111061
C149  C     C_R   0.518236 0.198182 0.517187 -0.218317
C150  C     C_R   0.481775 0.801813 0.482791 -0.218858
C151  C     C_R   0.481764 0.198182 0.482815 -0.218315
C152  C     C_R   0.518225 0.801813 0.517209 -0.218859
C153  C     C_R   0.018237 0.698182 0.517185 -0.218314
C154  C     C_R   0.981775 0.301813 0.482789 -0.218857
C155  C     C_R   0.981764 0.698183 0.482814 -0.218314
C156  C     C_R   0.018225 0.301813 0.517207 -0.218859
C157  C     C_R   0.480474 0.066058 0.485095 0.030606
C158  C     C_R   0.519523 0.933937 0.514911 0.030539
C159  C     C_R   0.519525 0.066058 0.514906 0.030606
C160  C     C_R   0.480477 0.933937 0.485090 0.030539
C161  C     C_R   0.980475 0.566058 0.485094 0.030606
C162  C     C_R   0.019523 0.433937 0.514909 0.030539
C163  C     C_R   0.019526 0.566058 0.514905 0.030606
C164  C     C_R   0.980477 0.433937 0.485088 0.030538
C165  C     C_R   0.960275 0.499997 0.471375 -0.056480
C166  C     C_R   0.039725 0.499997 0.528623 -0.056481
C167  C     C_R   0.460275 0.999997 0.471376 -0.056481
C168  C     C_R   0.539725 0.999997 0.528625 -0.056481
C169  C     C_R   0.894979 0.433498 0.441959 0.054995
C170  C     C_R   0.105026 0.566493 0.558034 0.052874
C171  C     C_R   0.105021 0.433498 0.558039 0.055000
C172  C     C_R   0.894974 0.566493 0.441965 0.052874
C173  C     C_R   0.394979 0.933498 0.441960 0.055000
C174  C     C_R   0.605026 0.066492 0.558035 0.052875
C175  C     C_R   0.605021 0.933498 0.558040 0.055000
C176  C     C_R   0.394974 0.066493 0.441966 0.052875
C177  C     C_R   0.844132 0.434632 0.441710 -0.112035
C178  C     C_R   0.155871 0.565354 0.558291 -0.109618
C179  C     C_R   0.155868 0.434632 0.558289 -0.112035
C180  C     C_R   0.844129 0.565354 0.441709 -0.109617
C181  C     C_R   0.344132 0.934632 0.441710 -0.112036
C182  C     C_R   0.655871 0.065354 0.558292 -0.109617
C183  C     C_R   0.655868 0.934632 0.558289 -0.112036
C184  C     C_R   0.344129 0.065354 0.441709 -0.109617
C185  C     C_R   0.821369 0.499985 0.436980 -0.324994
C186  C     C_R   0.178631 0.499985 0.563020 -0.324999
C187  C     C_R   0.321369 0.999985 0.436980 -0.325000
C188  C     C_R   0.678631 0.999985 0.563020 -0.325002
H1    H     H_    0.032306 0.250268 0.529495 0.136853
H2    H     H_    0.967671 0.749728 0.470554 0.137187
H3    H     H_    0.967695 0.250268 0.470500 0.136854
H4    H     H_    0.032330 0.749728 0.529445 0.137186
H5    H     H_    0.532305 0.750268 0.529497 0.136853
H6    H     H_    0.467670 0.249728 0.470556 0.137186
H7    H     H_    0.467694 0.750268 0.470502 0.136854
H8    H     H_    0.532330 0.249728 0.529446 0.137184
H9    H     H_    0.782396 0.499965 0.438407 0.188497
H10   H     H_    0.217604 0.499965 0.561594 0.188500
H11   H     H_    0.282396 0.999965 0.438406 0.188500
H12   H     H_    0.717604 0.999965 0.561593 0.188502
H13   H     H_    0.084369 0.317731 0.585193 0.192843
H14   H     H_    0.915613 0.682263 0.414851 0.193043
H15   H     H_    0.915631 0.317732 0.414804 0.192842
H16   H     H_    0.084387 0.682263 0.585149 0.193042
H17   H     H_    0.584369 0.817731 0.585194 0.192842
H18   H     H_    0.415613 0.182263 0.414853 0.193043
H19   H     H_    0.415631 0.817732 0.414805 0.192842
H20   H     H_    0.584387 0.182263 0.585150 0.193043
H21   H     H_    0.576427 0.349615 0.095118 0.184616
H22   H     H_    0.422811 0.649529 0.905270 0.185651
H23   H     H_    0.423575 0.349611 0.904881 0.184615
H24   H     H_    0.577188 0.649531 0.094730 0.185650
H25   H     H_    0.076426 0.849613 0.095118 0.184615
H26   H     H_    0.922811 0.149528 0.905270 0.185649
H27   H     H_    0.923575 0.849610 0.904882 0.184615
H28   H     H_    0.077189 0.149529 0.094730 0.185650
H29   H     H_    0.631438 0.336981 0.163922 0.134912
H30   H     H_    0.367366 0.661177 0.837220 0.136803
H31   H     H_    0.368565 0.336976 0.836076 0.134912
H32   H     H_    0.632632 0.661179 0.162782 0.136802
H33   H     H_    0.131437 0.836979 0.163922 0.134912
H34   H     H_    0.867365 0.161176 0.837220 0.136803
H35   H     H_    0.868565 0.836975 0.836077 0.134912
H36   H     H_    0.132635 0.161176 0.162780 0.136803
H37   H     H_    0.801751 0.131873 0.812227 0.135101
H38   H     H_    0.197253 0.866948 0.186930 0.154044
H39   H     H_    0.198249 0.131873 0.187774 0.135100
H40   H     H_    0.802750 0.866945 0.813067 0.154043
H41   H     H_    0.301752 0.631874 0.812226 0.135100
H42   H     H_    0.697254 0.366951 0.186931 0.154044
H43   H     H_    0.698246 0.631875 0.187776 0.135099
H44   H     H_    0.302749 0.366947 0.813069 0.154044
O1    O     O_R   0.746490 0.236330 0.638080 -0.601090
O2    O     O_R   0.253510 0.763670 0.361920 -0.590269
O3    O     O_R   0.253510 0.236330 0.361920 -0.601091
O4    O     O_R   0.746490 0.763670 0.638080 -0.590276
O5    O     O_R   0.246490 0.736330 0.638080 -0.601090
O6    O     O_R   0.753510 0.263670 0.361920 -0.590249
O7    O     O_R   0.753510 0.736330 0.361920 -0.601093
O8    O     O_R   0.246490 0.263670 0.638080 -0.590266
O9    O     O_R   0.674170 0.186160 0.516270 -0.637432
O10   O     O_R   0.325830 0.813840 0.483730 -0.637873
O11   O     O_R   0.325830 0.186160 0.483730 -0.637430
O12   O     O_R   0.674170 0.813840 0.516270 -0.637873
O13   O     O_R   0.174170 0.686160 0.516270 -0.637428
O14   O     O_R   0.825830 0.313840 0.483730 -0.637877
O15   O     O_R   0.825830 0.686160 0.483730 -0.637428
O16   O     O_R   0.174170 0.313840 0.516270 -0.637875
O17   O     O_R   0.739960 0.127620 0.525000 -0.623120
O18   O     O_R   0.260040 0.872380 0.475000 -0.623950
O19   O     O_R   0.260040 0.127620 0.475000 -0.623120
O20   O     O_R   0.739960 0.872380 0.525000 -0.623945
O21   O     O_R   0.239960 0.627620 0.525000 -0.623119
O22   O     O_R   0.760040 0.372380 0.475000 -0.623952
O23   O     O_R   0.760040 0.627620 0.475000 -0.623120
O24   O     O_R   0.239960 0.372380 0.525000 -0.623948
O25   O     O_R   0.680700 0.294870 0.629350 -0.632108
O26   O     O_R   0.319300 0.705130 0.370650 -0.629400
O27   O     O_R   0.319300 0.294870 0.370650 -0.632106
O28   O     O_R   0.680700 0.705130 0.629350 -0.629398
O29   O     O_R   0.180700 0.794870 0.629350 -0.632106
O30   O     O_R   0.819300 0.205130 0.370650 -0.629413
O31   O     O_R   0.819300 0.794870 0.370650 -0.632105
O32   O     O_R   0.180700 0.205130 0.629350 -0.629402
O33   O     O_R   0.062020 0.072840 0.007170 -0.623337
O34   O     O_R   0.937980 0.927160 0.992830 -0.623741
O35   O     O_R   0.937980 0.072840 0.992830 -0.623339
O36   O     O_R   0.062020 0.927160 0.007170 -0.623743
O37   O     O_R   0.562020 0.572840 0.007170 -0.623337
O38   O     O_R   0.437980 0.427160 0.992830 -0.623741
O39   O     O_R   0.437980 0.572840 0.992830 -0.623337
O40   O     O_R   0.562020 0.427160 0.007170 -0.623744
O41   O     O_R   0.947860 0.073950 0.109290 -0.619476
O42   O     O_R   0.052140 0.926050 0.890710 -0.619864
O43   O     O_R   0.052140 0.073950 0.890710 -0.619477
O44   O     O_R   0.947860 0.926050 0.109290 -0.619864
O45   O     O_R   0.447860 0.573950 0.109290 -0.619476
O46   O     O_R   0.552140 0.426050 0.890710 -0.619865
O47   O     O_R   0.552140 0.573950 0.890710 -0.619476
O48   O     O_R   0.447860 0.426050 0.109290 -0.619864
Zn1   Zn    Zn3+2 0.792340 0.208750 0.507670 0.936065
Zn2   Zn    Zn3+2 0.207660 0.791250 0.492330 0.944787
Zn3   Zn    Zn3+2 0.207660 0.208750 0.492330 0.936065
Zn4   Zn    Zn3+2 0.792340 0.791250 0.507670 0.944800
Zn5   Zn    Zn3+2 0.292340 0.708750 0.507670 0.936066
Zn6   Zn    Zn3+2 0.707660 0.291250 0.492330 0.944765
Zn7   Zn    Zn3+2 0.707660 0.708750 0.492330 0.936062
Zn8   Zn    Zn3+2 0.292340 0.291250 0.507670 0.944788
Zn9   Zn    Zn3+2 0.505960 0.500000 0.080520 0.920012
Zn10  Zn    Zn3+2 0.494040 0.500000 0.919480 0.920011
Zn11  Zn    Zn3+2 0.005960 0.000000 0.080520 0.920012
Zn12  Zn    Zn3+2 0.994040 0.000000 0.919480 0.920010
C189  C     C_R   0.581449 0.293550 0.793162 0.147118
C190  C     C_R   0.575673 0.345336 0.736358 -0.007911
C191  C     C_R   0.536428 0.335716 0.708720 -0.208945
C192  C     C_R   0.502676 0.274548 0.737415 -0.157644
C193  C     C_R   0.508152 0.222836 0.793693 -0.134151
C194  C     C_R   0.547365 0.232207 0.821437 -0.203213
H45   H     H_    0.601593 0.392988 0.713588 0.128289
H46   H     H_    0.532171 0.375708 0.665067 0.109880
H47   H     H_    0.472242 0.267236 0.716137 0.139801
H48   H     H_    0.481986 0.175475 0.815843 0.143139
H49   H     H_    0.551189 0.191699 0.865077 0.130290
C195  C     C_R   0.418601 0.706463 0.206658 0.143880
C196  C     C_R   0.453001 0.767489 0.178092 -0.204700
C197  C     C_R   0.492291 0.776506 0.205733 -0.134449
C198  C     C_R   0.497543 0.724742 0.262180 -0.156720
C199  C     C_R   0.463507 0.663859 0.291113 -0.208794
C200  C     C_R   0.424186 0.654594 0.263578 -0.006945
H50   H     H_    0.449372 0.808022 0.134287 0.130922
H51   H     H_    0.518695 0.823630 0.183362 0.142509
H52   H     H_    0.528034 0.731781 0.283384 0.139138
H53   H     H_    0.467609 0.623804 0.334857 0.109320
H54   H     H_    0.398075 0.607130 0.286482 0.128377
C201  C     C_R   0.418552 0.293551 0.206839 0.147118
C202  C     C_R   0.424327 0.345337 0.263643 -0.007910
C203  C     C_R   0.463571 0.335718 0.291282 -0.208942
C204  C     C_R   0.497323 0.274551 0.262588 -0.157644
C205  C     C_R   0.491848 0.222838 0.206311 -0.134151
C206  C     C_R   0.452636 0.232208 0.178566 -0.203213
H55   H     H_    0.398407 0.392988 0.286412 0.128290
H56   H     H_    0.467828 0.375711 0.334935 0.109880
H57   H     H_    0.527757 0.267239 0.283867 0.139799
H58   H     H_    0.518014 0.175477 0.184162 0.143139
H59   H     H_    0.448813 0.191699 0.134926 0.130290
C207  C     C_R   0.581399 0.706465 0.793342 0.143878
C208  C     C_R   0.546999 0.767491 0.821909 -0.204702
C209  C     C_R   0.507709 0.776508 0.794268 -0.134446
C210  C     C_R   0.502457 0.724745 0.737822 -0.156718
C211  C     C_R   0.536491 0.663861 0.708889 -0.208796
C212  C     C_R   0.575813 0.654596 0.736423 -0.006947
H60   H     H_    0.550629 0.808024 0.865712 0.130922
H61   H     H_    0.481306 0.823632 0.816639 0.142508
H62   H     H_    0.471966 0.731784 0.716618 0.139140
H63   H     H_    0.532389 0.623806 0.665145 0.109320
H64   H     H_    0.601924 0.607131 0.713519 0.128377
C213  C     C_R   0.081448 0.793549 0.793163 0.147115
C214  C     C_R   0.075672 0.845334 0.736359 -0.007915
C215  C     C_R   0.036427 0.835713 0.708721 -0.208944
C216  C     C_R   0.002675 0.774545 0.737418 -0.157643
C217  C     C_R   0.008151 0.722834 0.793695 -0.134151
C218  C     C_R   0.047364 0.732206 0.821438 -0.203212
H65   H     H_    0.101591 0.892986 0.713588 0.128292
H66   H     H_    0.032169 0.875705 0.665068 0.109882
H67   H     H_    0.972240 0.767232 0.716140 0.139801
H68   H     H_    0.981985 0.675473 0.815846 0.143138
H69   H     H_    0.051188 0.691698 0.865079 0.130290
C219  C     C_R   0.918602 0.206464 0.206657 0.143881
C220  C     C_R   0.953002 0.267490 0.178089 -0.204697
C221  C     C_R   0.992292 0.276507 0.205730 -0.134450
C222  C     C_R   0.997544 0.224744 0.262177 -0.156717
C223  C     C_R   0.963509 0.163861 0.291111 -0.208796
C224  C     C_R   0.924187 0.154596 0.263577 -0.006949
H70   H     H_    0.949372 0.308022 0.134285 0.130920
H71   H     H_    0.018696 0.323631 0.183358 0.142508
H72   H     H_    0.028035 0.231784 0.283380 0.139139
H73   H     H_    0.967611 0.123807 0.334856 0.109321
H74   H     H_    0.898076 0.107131 0.286482 0.128378
C225  C     C_R   0.918552 0.793549 0.206838 0.147114
C226  C     C_R   0.924328 0.845336 0.263642 -0.007912
C227  C     C_R   0.963572 0.835717 0.291280 -0.208941
C228  C     C_R   0.997324 0.774550 0.262586 -0.157644
C229  C     C_R   0.991848 0.722837 0.206309 -0.134153
C230  C     C_R   0.952636 0.732207 0.178565 -0.203209
H75   H     H_    0.898407 0.892987 0.286410 0.128292
H76   H     H_    0.967829 0.875710 0.334933 0.109881
H77   H     H_    0.027758 0.767238 0.283865 0.139800
H78   H     H_    0.018014 0.675476 0.184160 0.143139
H79   H     H_    0.948812 0.691698 0.134925 0.130290
C231  C     C_R   0.081398 0.206467 0.793345 0.143876
C232  C     C_R   0.047001 0.267495 0.821911 -0.204701
C233  C     C_R   0.007710 0.276515 0.794271 -0.134445
C234  C     C_R   0.002456 0.224753 0.737826 -0.156712
C235  C     C_R   0.036489 0.163867 0.708893 -0.208800
C236  C     C_R   0.075810 0.154600 0.736426 -0.006953
H80   H     H_    0.050632 0.308027 0.865714 0.130921
H81   H     H_    0.981309 0.323641 0.816642 0.142505
H82   H     H_    0.971965 0.231795 0.716622 0.139141
H83   H     H_    0.032385 0.123814 0.665149 0.109322
H84   H     H_    0.101920 0.107133 0.713521 0.128379
N1    N     N_2   0.738989 0.128046 0.737909 -0.272413
H85   H     H_    0.774566 0.098395 0.706255 0.210293
C237  C     C_3   0.690951 0.082571 0.774044 -0.809058
H86   H     H_    0.694636 0.043300 0.720958 0.239809
H87   H     H_    0.653926 0.115796 0.793776 0.237359
H88   H     H_    0.686540 0.051715 0.834452 0.241473
N2    N     N_2   0.262479 0.871937 0.262192 -0.268265
H89   H     H_    0.300465 0.888304 0.250294 0.205917
C238  C     C_3   0.219766 0.925885 0.302736 -0.793804
H90   H     H_    0.224314 0.956678 0.355776 0.235823
H91   H     H_    0.179305 0.899022 0.336552 0.230118
H92   H     H_    0.222533 0.964729 0.249750 0.226253
N3    N     N_2   0.261010 0.128045 0.262092 -0.272411
H93   H     H_    0.225433 0.098394 0.293746 0.210291
C239  C     C_3   0.309047 0.082569 0.225957 -0.809059
H94   H     H_    0.305362 0.043298 0.279044 0.239811
H95   H     H_    0.346073 0.115794 0.206225 0.237360
H96   H     H_    0.313458 0.051713 0.165550 0.241470
N4    N     N_2   0.737522 0.871938 0.737808 -0.268253
H97   H     H_    0.699536 0.888293 0.749694 0.205923
C240  C     C_3   0.780224 0.925904 0.697288 -0.793846
H98   H     H_    0.775672 0.956707 0.644259 0.235819
H99   H     H_    0.820691 0.899055 0.663462 0.230119
H100  H     H_    0.777449 0.964736 0.750291 0.226272
N5    N     N_2   0.238991 0.628046 0.737907 -0.272409
H101  H     H_    0.274567 0.598395 0.706254 0.210291
C241  C     C_3   0.190953 0.582569 0.774042 -0.809061
H102  H     H_    0.194639 0.543298 0.720956 0.239808
H103  H     H_    0.153928 0.615793 0.793774 0.237360
H104  H     H_    0.186543 0.551713 0.834450 0.241469
N6    N     N_2   0.762485 0.371938 0.262182 -0.268293
H105  H     H_    0.800476 0.388350 0.250213 0.205903
C242  C     C_3   0.719749 0.425850 0.302788 -0.793701
H106  H     H_    0.724299 0.456634 0.355832 0.235822
H107  H     H_    0.679300 0.398953 0.336611 0.230122
H108  H     H_    0.722482 0.464708 0.249838 0.226198
N7    N     N_2   0.761004 0.628046 0.262098 -0.272402
H109  H     H_    0.725425 0.598401 0.293756 0.210288
C243  C     C_3   0.809036 0.582559 0.225961 -0.809068
H110  H     H_    0.805348 0.543288 0.279049 0.239807
H111  H     H_    0.846066 0.615777 0.206223 0.237364
H112  H     H_    0.813440 0.551703 0.165558 0.241466
N8    N     N_2   0.237520 0.371937 0.737811 -0.268267
H113  H     H_    0.199532 0.388312 0.749726 0.205915
C244  C     C_3   0.280234 0.425883 0.697263 -0.793798
H114  H     H_    0.275684 0.456678 0.644226 0.235823
H115  H     H_    0.320695 0.399018 0.663442 0.230120
H116  H     H_    0.277471 0.464726 0.750248 0.226247

loop_
_geom_bond_atom_site_label_1
_geom_bond_atom_site_label_2
_ccdc_geom_bond_type
C135  O35   A    
C154  H3    S    
C85   C182  S    
N6    C242  S    
C22   C94   A    
C244  H114  S    
C9    C169  A    
C34   C42   A    
N1    C237  S    
C213  C214  A    
C181  C187  A    
C6    O6    A    
C27   C99   A    
C204  H57   S    
C170  C178  A    
C175  C183  A    
C42   C109  A    
C218  H69   S    
C24   C96   A    
C149  H8    S    
C226  H75   S    
C196  H50   S    
C233  C234  A    
C30   C38   A    
N4    C240  S    
C241  H104  S    
C3    O3    A    
C1    O1    A    
C193  H48   S    
C207  C208  A    
C8    O32   A    
C147  C155  A    
O11   Zn8   S    
C88   O20   A    
C143  C151  A    
C90   C177  S    
C242  H107  S    
C5    O29   A    
C82   C98   A    
C76   C84   A    
C126  H38   S    
C73   C81   A    
C161  C163  A    
C162  C164  A    
O22   Zn6   S    
C211  C212  A    
C84   C100  A    
C140  O46   A    
C243  H112  S    
C216  C217  A    
C121  C129  A    
C137  O37   A    
C222  H72   S    
C37   C114  A    
C27   C35   A    
C10   C171  A    
C21   C29   A    
O3    Zn3   S    
C81   C121  A    
C202  C203  A    
C23   C31   A    
C24   C32   A    
O10   Zn5   S    
O38   Zn10  S    
O15   Zn4   S    
C146  C154  A    
C239  H94   S    
C223  C224  A    
C197  C198  A    
C113  H33   S    
C5    O5    A    
C192  C193  A    
C63   C71   A    
C238  H90   S    
C244  H116  S    
C36   C44   A    
N2    H89   S    
C87   C184  S    
C12   C174  A    
C138  O38   A    
C176  C184  A    
O7    Zn7   S    
O8    Zn8   S    
C138  O48   A    
C139  O45   A    
C15   H15   S    
C133  O33   A    
N3    H93   S    
O48   Zn9   S    
C148  C162  A    
C183  C188  A    
C142  C150  A    
C21   C93   A    
C127  H39   S    
C3    O27   A    
C9    C165  A    
C219  C220  A    
C89   O13   A    
C63   C201  S    
C235  H83   S    
O27   Zn8   S    
C199  H53   S    
C49   C97   A    
C21   C42   A    
C22   C41   A    
C107  H27   S    
C51   C107  A    
C232  H80   S    
C225  C226  A    
O33   Zn11  S    
O32   Zn3   S    
O34   Zn12  S    
O41   Zn11  S    
C185  H9    S    
C16   H16   S    
O42   Zn12  S    
C82   C122  A    
C161  C165  A    
C17   C175  A    
C18   C176  A    
O1    Zn1   S    
C227  H76   S    
C85   O17   A    
C220  C221  A    
C29   C125  A    
C124  N8    S    
C229  H78   S    
C65   C213  S    
C243  H110  S    
C31   C127  A    
C45   C93   A    
C174  C182  A    
C71   C79   A    
C231  C232  A    
C92   O16   A    
C179  C186  A    
C236  H84   S    
C87   O19   A    
C62   C70   A    
C11   C176  A    
C91   O23   A    
C17   C144  A    
C151  H6    S    
C105  C113  A    
C18   C143  A    
C78   C118  A    
C78   C94   A    
O43   Zn12  S    
C149  C151  A    
C25   C38   A    
O30   Zn1   S    
O45   Zn9   S    
C228  C229  A    
C188  H12   S    
C214  H65   S    
C66   C74   A    
C48   C96   A    
C8    C76   S    
C49   C57   A    
C124  C132  A    
O14   Zn1   S    
C198  H52   S    
C189  C194  A    
C235  C236  A    
O25   Zn6   S    
C52   C60   A    
C59   C67   A    
C53   C61   A    
C203  H56   S    
C141  C159  A    
C20   C174  A    
C23   C95   A    
C55   C63   A    
C86   C181  S    
C56   C64   A    
C7    O31   A    
C225  C230  A    
C35   C43   A    
C212  H64   S    
C213  C218  A    
C10   C166  A    
C156  H1    S    
C215  H66   S    
C90   O22   A    
C45   C53   A    
C4    O4    A    
C171  C179  A    
C221  C222  A    
C111  H31   S    
C169  C177  A    
C226  C227  A    
N7    C243  S    
C210  H62   S    
C8    O8    A    
C106  H26   S    
C50   C98   A    
C233  H81   S    
C103  H23   S    
C104  C112  A    
O19   Zn3   S    
C145  C163  A    
C101  H21   S    
C146  C164  A    
C14   C147  A    
C52   C100  A    
O31   Zn4   S    
C68   C231  S    
C16   C145  A    
C135  O41   A    
C119  N3    S    
C230  H79   S    
O37   Zn9   S    
C189  C190  A    
C178  C186  A    
O40   Zn9   S    
C54   C139  S    
C46   C94   A    
C27   C40   A    
C128  H40   S    
C91   C180  S    
C112  H32   S    
C6    O30   A    
C182  C188  A    
C89   C178  S    
C28   C36   A    
C25   C97   A    
C196  C197  A    
C211  H63   S    
C67   C75   A    
C216  H67   S    
C104  H24   S    
C240  H100  S    
C238  H91   S    
C131  H43   S    
C24   C43   A    
C137  O47   A    
C118  N2    S    
C22   C30   A    
C20   C141  A    
C209  C210  A    
N2    C238  S    
C15   C146  A    
C64   C207  S    
C58   C135  S    
C68   C76   A    
C59   C134  S    
C197  H51   S    
C184  C187  A    
C136  O36   A    
C62   C195  S    
C32   C128  A    
C17   H17   S    
C237  H88   S    
C190  H45   S    
C144  C152  A    
C56   C137  S    
C221  H71   S    
C14   H14   S    
C194  H49   S    
C241  H103  S    
C5    C73   S    
C150  H7    S    
C109  H29   S    
C13   C171  A    
C4    O28   A    
C121  N5    S    
C117  C125  A    
C220  H70   S    
C25   C33   A    
C119  C127  A    
C11   C167  A    
C134  O34   A    
C242  H106  S    
C133  O43   A    
O4    Zn4   S    
O5    Zn5   S    
C157  C167  A    
C80   C120  A    
C158  C168  A    
N8    C244  S    
O17   Zn1   S    
O26   Zn5   S    
C115  H35   S    
C164  C165  A    
C243  H111  S    
C190  C191  A    
C239  H96   S    
C40   C115  A    
C130  H42   S    
C101  C109  A    
C232  C233  A    
O23   Zn7   S    
C177  C185  A    
O24   Zn8   S    
C103  C111  A    
C210  C211  A    
C162  C166  A    
O44   Zn11  S    
C69   C77   A    
C2    O2    A    
C222  C223  A    
O2    Zn2   S    
C79   C119  A    
C229  C230  A    
C153  C155  A    
C154  C156  A    
C231  C236  A    
C172  C180  A    
C173  C181  A    
C201  C202  A    
C157  C159  A    
C83   C99   A    
C158  C160  A    
C244  H115  S    
C74   C82   A    
C125  H37   S    
C6    C74   S    
C1    O25   A    
C228  H77   S    
C195  C200  A    
O46   Zn10  S    
C91   O15   A    
C47   C103  A    
C198  C199  A    
C50   C58   A    
C163  C166  A    
C147  C161  A    
C191  C192  A    
C38   C113  A    
C49   C105  A    
C54   C62   A    
C28   C39   A    
C1    C69   S    
C23   C44   A    
C187  H11   S    
C116  H36   S    
C3    C71   S    
C19   C173  A    
C240  H98   S    
C79   C95   A    
C92   C179  S    
N3    C239  S    
C215  C216  A    
O47   Zn10  S    
C46   C54   A    
C85   O9    A    
C201  C206  A    
C67   C225  S    
C206  H59   S    
C114  H34   S    
O36   Zn11  S    
C108  H28   S    
C45   C101  A    
C92   O24   A    
C202  H55   S    
C242  H108  S    
C61   C189  S    
C102  C110  A    
C84   C124  A    
C35   C131  A    
C4    C72   S    
C33   C129  A    
C205  H58   S    
O35   Zn12  S    
C123  C131  A    
C136  O42   A    
C57   C65   A    
C88   O12   A    
C217  H68   S    
C120  C128  A    
C26   C37   A    
C191  H46   S    
C10   C170  A    
C33   C41   A    
C108  C116  A    
C36   C132  A    
C208  C209  A    
C75   C83   A    
C90   O14   A    
C77   C93   A    
C205  C206  A    
C44   C111  A    
C16   C170  A    
C60   C68   A    
C72   C80   A    
C39   C116  A    
C29   C37   A    
N6    H105  S    
C50   C106  A    
C186  H10   S    
C9    C172  A    
C148  C156  A    
C83   C123  A    
C2    C70   S    
C60   C133  S    
O16   Zn3   S    
N4    H97   S    
C86   O18   A    
C30   C126  A    
C70   C78   A    
C53   C140  S    
C134  O44   A    
C193  C194  A    
N7    H109  S    
C141  C149  A    
C217  C218  A    
C46   C102  A    
C209  H61   S    
C55   C138  S    
C152  H5    S    
C106  C114  A    
C155  H2    S    
C77   C117  A    
O20   Zn4   S    
C208  H60   S    
O21   Zn5   S    
N5    C241  S    
C48   C104  A    
C129  H41   S    
C65   C73   A    
C159  C168  A    
C15   C169  A    
C160  C167  A    
C26   C34   A    
C117  N1    S    
C13   H13   S    
C241  H102  S    
C57   C136  S    
O9    Zn6   S    
C80   C96   A    
O39   Zn10  S    
C224  H74   S    
O6    Zn6   S    
C86   O10   A    
C145  C153  A    
C28   C100  A    
C32   C40   A    
C52   C108  A    
C89   O21   A    
C223  H73   S    
C19   H19   S    
O18   Zn2   S    
C132  H44   S    
C240  H99   S    
C58   C66   A    
C219  C224  A    
C143  C157  A    
C51   C99   A    
C192  H47   S    
C11   C173  A    
C105  H25   S    
C14   C172  A    
N8    H113  S    
C102  H22   S    
C88   C183  S    
C7    C75   S    
C139  O39   A    
C140  O40   A    
C234  H82   S    
C237  H87   S    
C204  C205  A    
C238  H92   S    
C122  N6    S    
C87   O11   A    
C107  C115  A    
C26   C98   A    
C12   C175  A    
C195  C196  A    
C2    O26   A    
C7    O7    A    
C41   C110  A    
C123  N7    S    
C150  C152  A    
C51   C59   A    
C43   C112  A    
C20   H20   S    
C144  C158  A    
C207  C212  A    
C199  C200  A    
C47   C55   A    
C61   C69   A    
C48   C56   A    
C142  C160  A    
C12   C168  A    
C19   C142  A    
C227  C228  A    
C18   H18   S    
C234  C235  A    
C200  H54   S    
C239  H95   S    
N1    H85   S    
C120  N4    S    
C81   C97   A    
C31   C39   A    
N5    H101  S    
C64   C72   A    
C203  C204  A    
C110  H30   S    
O28   Zn7   S    
C180  C185  A    
O29   Zn2   S    
C34   C130  A    
O12   Zn7   S    
C214  C215  A    
O13   Zn2   S    
C47   C95   A    
C66   C219  S    
C118  C126  A    
C13   C148  A    
C122  C130  A    
C237  H86   S    
C153  H4    S    
