data_str_m3_o40_o41_f0_fof.sym.54
_audit_creation_date              2012-12-10T16:38:07-0500
_audit_creation_method            fapswitch 2.2
_symmetry_space_group_name_H-M    P1
_symmetry_Int_Tables_number       1
_space_group_crystal_system       triclinic
_cell_length_a                    28.270469
_cell_length_b                    18.488235
_cell_length_c                    16.972804
_cell_angle_alpha                 90.389352
_cell_angle_beta                  61.159644
_cell_angle_gamma                 90.414391
_cell_volume                      7770.61558152

loop_
_atom_site_label
_atom_site_type_symbol
_atom_type_description
_atom_site_fract_x
_atom_site_fract_y
_atom_site_fract_z
_atom_type_partial_charge
C1    C     C_R   0.701100 0.266348 0.677037 0.883048
C2    C     C_R   0.092208 0.500806 0.523332 0.066608
C3    C     C_R   0.199209 0.206181 0.898973 0.063900
C4    C     C_R   0.620479 0.334977 0.047482 -0.226528
C5    C     C_R   0.342010 0.604676 0.000736 -0.217380
C6    C     C_R   0.387523 0.322256 0.948193 -0.218823
C7    C     C_R   0.652953 0.613692 0.010741 -0.216804
C8    C     C_R   0.120475 0.834969 0.047486 -0.226541
C9    C     C_R   0.842010 0.104669 0.000731 -0.217374
C10   C     C_R   0.887515 0.822265 0.948201 -0.218825
C11   C     C_R   0.152982 0.113634 0.010691 -0.216799
C12   C     C_R   0.651564 0.323740 0.089554 -0.187626
C13   C     C_R   0.404703 0.999051 0.485373 0.068498
C14   C     C_R   0.315795 0.623579 0.952811 -0.226038
C15   C     C_R   0.358412 0.309852 0.902242 -0.183482
C16   C     C_R   0.676984 0.638349 0.060559 -0.208299
C17   C     C_R   0.151558 0.823730 0.089559 -0.187840
C18   C     C_R   0.815797 0.123575 0.952805 -0.226036
C19   C     C_R   0.858402 0.809868 0.902252 -0.183505
C20   C     C_R   0.177021 0.138272 0.060503 -0.208555
C21   C     C_R   0.745144 0.196392 0.791800 -0.277985
C22   C     C_R   0.261179 0.807135 0.201038 -0.251661
C23   C     C_R   0.230410 0.253844 0.225224 -0.282590
C24   C     C_R   0.592204 0.000806 0.523342 0.066608
C25   C     C_R   0.746485 0.800877 0.791772 -0.266576
C26   C     C_R   0.245144 0.696391 0.791802 -0.277986
C27   C     C_R   0.761173 0.307116 0.201046 -0.251819
C28   C     C_R   0.730387 0.753930 0.225253 -0.282853
C29   C     C_R   0.246488 0.300865 0.791776 -0.266571
C30   C     C_R   0.777014 0.184033 0.832348 0.462156
C31   C     C_R   0.232503 0.825095 0.155646 0.453076
C32   C     C_R   0.204549 0.232158 0.176516 0.477357
C33   C     C_R   0.777520 0.816867 0.833832 0.452706
C34   C     C_R   0.277013 0.684032 0.832351 0.462147
C35   C     C_R   0.113317 0.380748 0.456926 -0.260248
C36   C     C_R   0.732493 0.325072 0.155659 0.452833
C37   C     C_R   0.704519 0.732257 0.176550 0.477348
C38   C     C_R   0.277525 0.316848 0.833835 0.452693
C39   C     C_R   0.078769 0.092986 0.929964 0.939101
C40   C     C_R   0.928740 0.896569 0.062710 0.894297
C41   C     C_R   0.920958 0.092187 0.070825 0.939021
C42   C     C_R   0.073364 0.898716 0.935234 0.893054
C43   C     C_R   0.578766 0.592994 0.929969 0.939100
C44   C     C_R   0.428740 0.396570 0.062711 0.894305
C45   C     C_R   0.420959 0.592191 0.070823 0.939000
C46   C     C_R   0.881691 0.617942 0.555098 -0.241280
C47   C     C_R   0.573364 0.398717 0.935234 0.893080
C48   C     C_R   0.523323 0.121387 0.579690 0.112429
C49   C     C_R   0.472030 0.877194 0.433983 0.095910
C50   C     C_R   0.427987 0.118770 0.565218 0.106188
C51   C     C_R   0.565684 0.878691 0.451757 0.100068
C52   C     C_R   0.023325 0.621385 0.579685 0.112430
C53   C     C_R   0.972035 0.377195 0.433968 0.095925
C54   C     C_R   0.927989 0.618768 0.565212 0.106188
C55   C     C_R   0.065691 0.378694 0.451738 0.100108
C56   C     C_R   0.487223 0.179663 0.611661 -0.204957
C57   C     C_R   0.925721 0.377089 0.424175 -0.247448
C58   C     C_R   0.505192 0.816166 0.410125 -0.222199
C59   C     C_R   0.439693 0.178082 0.605238 -0.202081
C60   C     C_R   0.551742 0.816924 0.418911 -0.208240
C61   C     C_R   0.987224 0.679661 0.611658 -0.204956
C62   C     C_R   0.005199 0.316169 0.410106 -0.222196
C63   C     C_R   0.939694 0.678080 0.605234 -0.202083
C64   C     C_R   0.051749 0.316928 0.418889 -0.208302
C65   C     C_R   0.463454 0.059738 0.534085 0.032896
C66   C     C_R   0.531601 0.939004 0.479571 0.045749
C67   C     C_R   0.510731 0.060622 0.542506 0.027542
C68   C     C_R   0.071680 0.622911 0.584196 -0.242271
C69   C     C_R   0.484852 0.938491 0.470020 0.015272
C70   C     C_R   0.963457 0.559737 0.534077 0.032897
C71   C     C_R   0.031606 0.439005 0.479555 0.045746
C72   C     C_R   0.010734 0.560621 0.542497 0.027544
C73   C     C_R   0.984857 0.438491 0.470006 0.015282
C74   C     C_R   0.951059 0.499160 0.496336 -0.055685
C75   C     C_R   0.044955 0.500302 0.514822 -0.051962
C76   C     C_R   0.451056 0.999160 0.496346 -0.055684
C77   C     C_R   0.544951 0.000302 0.514834 -0.051956
C78   C     C_R   0.890415 0.436677 0.452887 0.062194
C79   C     C_R   0.613310 0.880747 0.456942 -0.260261
C80   C     C_R   0.107571 0.563681 0.553284 0.061701
C81   C     C_R   0.125091 0.438942 0.499472 0.057557
C82   C     C_R   0.871797 0.560778 0.508611 0.049391
C83   C     C_R   0.390413 0.936677 0.452894 0.062199
C84   C     C_R   0.607569 0.063682 0.553289 0.061699
C85   C     C_R   0.625087 0.938941 0.499483 0.057559
C86   C     C_R   0.371795 0.060779 0.508617 0.049392
C87   C     C_R   0.840367 0.436042 0.452098 -0.120008
C88   C     C_R   0.158744 0.564396 0.550723 -0.121429
C89   C     C_R   0.168320 0.437768 0.520045 -0.104866
C90   C     C_R   0.381689 0.117943 0.555102 -0.241279
C91   C     C_R   0.830178 0.562336 0.484061 -0.110613
C92   C     C_R   0.340366 0.936043 0.452102 -0.120012
C93   C     C_R   0.658743 0.064397 0.550726 -0.121428
C94   C     C_R   0.668318 0.937768 0.520052 -0.104862
C95   C     C_R   0.330177 0.062336 0.484064 -0.110609
C96   C     C_R   0.814636 0.500050 0.457664 -0.299100
C97   C     C_R   0.184746 0.500320 0.544292 -0.302817
C98   C     C_R   0.314635 0.000051 0.457667 -0.299114
C99   C     C_R   0.684744 0.000320 0.544296 -0.302817
C100  C     C_3   0.869191 0.200353 0.755726 0.073443
C101  C     C_R   0.425718 0.877089 0.424184 -0.247448
C102  C     C_3   0.872432 0.255374 0.685764 -0.357226
C103  C     C_3   0.919974 0.307049 0.659246 -0.925588
C104  C     C_3   0.238846 0.944179 0.114891 0.075769
C105  C     C_3   0.248774 0.005390 0.166369 -0.341890
C106  C     C_3   0.289626 0.060260 0.102388 -0.942582
C107  C     C_3   0.124536 0.281964 0.194868 0.080186
C108  C     C_3   0.142953 0.359520 0.201821 -0.393442
C109  C     C_3   0.106701 0.416151 0.193324 -0.919837
C110  C     C_3   0.777528 0.933658 0.879312 0.100786
C111  C     C_3   0.744712 0.982444 0.850934 -0.357869
C112  C     C_R   0.299207 0.734325 0.323205 0.884582
C113  C     C_R   0.571679 0.122912 0.584200 -0.242275
C114  C     C_3   0.702695 0.026052 0.930359 -0.941186
C115  C     C_3   0.369190 0.700349 0.755729 0.073449
C116  C     C_3   0.372432 0.755373 0.685771 -0.357242
C117  C     C_3   0.419973 0.807048 0.659257 -0.925586
C118  C     C_3   0.739000 0.444196 0.115040 0.075442
C119  C     C_3   0.748354 0.505636 0.166881 -0.341602
C120  C     C_3   0.789323 0.560556 0.103239 -0.942880
C121  C     C_3   0.624514 0.782075 0.194887 0.080187
C122  C     C_3   0.642928 0.859630 0.201855 -0.393365
C123  C     C_3   0.606674 0.916263 0.193367 -0.919853
C124  C     C_R   0.716209 0.257611 0.959667 -0.036133
C125  C     C_3   0.277517 0.433635 0.879344 0.100774
C126  C     C_3   0.244706 0.482429 0.850967 -0.357874
C127  C     C_3   0.202692 0.526040 0.930392 -0.941183
C128  C     C_R   0.274657 0.725190 0.052144 -0.035682
C129  C     C_R   0.284417 0.263035 0.038701 -0.046853
C130  C     C_R   0.729162 0.724258 0.943703 -0.037883
C131  C     C_R   0.216208 0.757611 0.959669 -0.036075
C132  C     C_R   0.774652 0.225178 0.052149 -0.035751
C133  C     C_R   0.784394 0.763091 0.038726 -0.046855
C134  C     C_R   0.229184 0.224213 0.943677 -0.037828
C135  C     C_R   0.760155 0.209187 0.921091 -0.090818
C136  C     C_R   0.295531 0.273938 0.324890 0.894406
C137  C     C_R   0.235398 0.780271 0.085039 -0.090975
C138  C     C_R   0.234426 0.227365 0.082142 -0.089436
C139  C     C_R   0.772689 0.773501 0.905629 -0.093905
C140  C     C_R   0.260155 0.709189 0.921092 -0.090825
C141  C     C_R   0.735394 0.280259 0.085045 -0.090730
C142  C     C_R   0.734395 0.727444 0.082177 -0.089427
C143  C     C_R   0.272703 0.273468 0.905615 -0.093917
C144  C     C_R   0.784494 0.186496 0.973425 0.074629
C145  C     C_R   0.201707 0.789320 0.044589 0.088824
C146  C     C_R   0.213408 0.196077 0.029523 0.069844
C147  C     C_R   0.701378 0.733283 0.676705 0.892036
C148  C     C_R   0.805522 0.782798 0.947646 0.079463
C149  C     C_R   0.284495 0.686502 0.973426 0.074641
C150  C     C_R   0.701709 0.289320 0.044587 0.088889
C151  C     C_R   0.713377 0.696146 0.029564 0.069890
C152  C     C_R   0.305538 0.282762 0.947630 0.079507
C153  C     C_R   0.640071 0.318464 0.955257 0.095533
C154  C     C_R   0.340845 0.650137 0.068619 0.094822
C155  C     C_R   0.363027 0.314904 0.042935 0.093242
C156  C     C_R   0.658780 0.652221 0.934426 0.085946
C157  C     C_R   0.140069 0.818461 0.955259 0.095547
C158  C     C_R   0.201100 0.766347 0.677037 0.883042
C159  C     C_R   0.840841 0.150125 0.068622 0.094826
C160  C     C_R   0.863017 0.814924 0.042945 0.093254
C161  C     C_R   0.158798 0.152185 0.934398 0.085984
C162  C     C_R   0.614611 0.342152 0.904019 -0.128781
C163  C     C_R   0.374192 0.639145 0.109425 -0.141011
C164  C     C_R   0.387154 0.340634 0.095084 -0.135330
C165  C     C_R   0.626182 0.639427 0.892012 -0.139103
C166  C     C_R   0.114610 0.842150 0.904020 -0.128787
C167  C     C_R   0.874188 0.139135 0.109428 -0.141016
C168  C     C_R   0.887151 0.840640 0.095088 -0.135340
C169  C     C_R   0.799206 0.234321 0.323205 0.884603
C170  C     C_R   0.126190 0.139411 0.891999 -0.139123
C171  C     C_R   0.633099 0.318357 0.816925 -0.312646
C172  C     C_R   0.363483 0.674598 0.187699 -0.304452
C173  C     C_R   0.365557 0.322188 0.184468 -0.301833
C174  C     C_R   0.638311 0.672462 0.812002 -0.308805
C175  C     C_R   0.133099 0.818357 0.816925 -0.312645
C176  C     C_R   0.863478 0.174587 0.187704 -0.304474
C177  C     C_R   0.865555 0.822195 0.184472 -0.301794
C178  C     C_R   0.138313 0.172458 0.811999 -0.308795
C179  C     C_R   0.677563 0.274046 0.775562 -0.091874
C180  C     C_R   0.795527 0.773948 0.324894 0.894406
C181  C     C_R   0.321239 0.722360 0.226395 -0.096670
C182  C     C_R   0.315565 0.289410 0.229266 -0.090699
C183  C     C_R   0.681174 0.719601 0.772316 -0.093138
C184  C     C_R   0.177563 0.774046 0.775562 -0.091872
C185  C     C_R   0.821235 0.222347 0.226399 -0.096646
C186  C     C_R   0.815556 0.789436 0.229276 -0.090651
C187  C     C_R   0.181177 0.219595 0.772313 -0.093145
C188  C     C_R   0.703023 0.247584 0.825880 -0.006603
C189  C     C_R   0.294977 0.746134 0.176708 -0.000725
C190  C     C_R   0.285852 0.273355 0.182117 -0.011920
C191  C     C_R   0.201378 0.233282 0.676705 0.892037
C192  C     C_R   0.709510 0.742275 0.819409 -0.001905
C193  C     C_R   0.203023 0.747583 0.825881 -0.006615
C194  C     C_R   0.794970 0.246117 0.176715 -0.000702
C195  C     C_R   0.785834 0.773410 0.182137 -0.012024
C196  C     C_R   0.209517 0.242258 0.819403 -0.001917
C197  C     C_R   0.691189 0.129672 0.535700 0.894436
C198  C     C_R   0.308556 0.870542 0.465155 0.887781
C199  C     C_R   0.303124 0.127872 0.483082 0.918516
C200  C     C_R   0.696243 0.872221 0.518738 0.891539
C201  C     C_R   0.191189 0.629672 0.535699 0.894434
C202  C     C_R   0.904706 0.499050 0.485366 0.068500
C203  C     C_R   0.808557 0.370542 0.465153 0.887795
C204  C     C_R   0.803125 0.627872 0.483081 0.918526
C205  C     C_R   0.196244 0.372221 0.518736 0.891552
C206  C     C_R   0.686612 0.274836 0.913313 0.064643
C207  C     C_R   0.303836 0.707755 0.098639 0.066593
C208  C     C_R   0.311544 0.282600 0.087732 0.064053
C209  C     C_R   0.699194 0.706213 0.898993 0.063898
C210  C     C_R   0.186611 0.774834 0.913315 0.064644
C211  C     C_R   0.803829 0.207739 0.098646 0.066572
C212  C     C_R   0.811526 0.782645 0.087750 0.064192
H1    H     H_    0.077072 0.269312 0.399508 0.178392
H2    H     H_    0.220494 0.500039 0.552493 0.196505
H3    H     H_    0.621694 0.971220 0.196809 0.268774
H4    H     H_    0.564613 0.910702 0.248974 0.276284
H5    H     H_    0.307456 0.467117 0.887643 0.152273
H6    H     H_    0.250653 0.410352 0.947276 0.133475
H7    H     H_    0.272485 0.519745 0.797262 0.248956
H8    H     H_    0.223086 0.449322 0.823540 0.218488
H9    H     H_    0.171641 0.489269 0.980419 0.263380
H10   H     H_    0.182457 0.564518 0.906438 0.268162
H11   H     H_    0.221843 0.556970 0.963743 0.269747
H12   H     H_    0.279841 0.000414 0.446802 0.195357
H13   H     H_    0.720494 0.000040 0.552494 0.196505
H14   H     H_    0.141389 0.337359 0.423947 0.168096
H15   H     H_    0.853322 0.661569 0.585955 0.178140
H16   H     H_    0.918455 0.331011 0.391747 0.166099
H17   H     H_    0.080042 0.669373 0.614740 0.162040
H18   H     H_    0.641381 0.837357 0.423961 0.168106
H19   H     H_    0.353321 0.161572 0.585958 0.178142
H20   H     H_    0.418454 0.831012 0.391753 0.166100
H21   H     H_    0.912572 0.723857 0.630097 0.149201
H22   H     H_    0.580042 0.169376 0.614742 0.162042
H23   H     H_    0.614357 0.338382 0.778694 0.189131
H24   H     H_    0.386397 0.661571 0.221759 0.189593
H25   H     H_    0.386373 0.338262 0.221348 0.191622
H26   H     H_    0.615257 0.658950 0.778046 0.192025
H27   H     H_    0.114358 0.838383 0.778694 0.189133
H28   H     H_    0.886393 0.161562 0.221763 0.189600
H29   H     H_    0.886378 0.838253 0.221345 0.191614
H30   H     H_    0.115252 0.158957 0.778050 0.192025
H31   H     H_    0.580268 0.354260 0.091043 0.181878
H32   H     H_    0.995233 0.267952 0.384401 0.143599
H33   H     H_    0.361567 0.552647 0.984865 0.180667
H34   H     H_    0.429465 0.337178 0.907817 0.169478
H35   H     H_    0.630670 0.563897 0.034027 0.187816
H36   H     H_    0.080262 0.854250 0.091045 0.181888
H37   H     H_    0.861570 0.052643 0.984854 0.180667
H38   H     H_    0.929460 0.837171 0.907824 0.169472
H39   H     H_    0.130699 0.063836 0.033960 0.187761
H40   H     H_    0.634048 0.338270 0.159849 0.197142
H41   H     H_    0.318772 0.586318 0.901763 0.196823
H42   H     H_    0.378356 0.318716 0.830344 0.182397
H43   H     H_    0.995810 0.726561 0.641366 0.140366
H44   H     H_    0.668437 0.610524 0.122030 0.181187
H45   H     H_    0.134040 0.838255 0.159856 0.197159
H46   H     H_    0.818779 0.086320 0.901749 0.196818
H47   H     H_    0.878349 0.818720 0.830352 0.182401
H48   H     H_    0.168485 0.110428 0.121959 0.181204
H49   H     H_    0.755677 0.164713 0.732290 0.204102
H50   H     H_    0.258848 0.844286 0.252246 0.179860
H51   H     H_    0.204252 0.261382 0.296181 0.189413
H52   H     H_    0.749351 0.838687 0.741481 0.188748
H53   H     H_    0.255677 0.664713 0.732290 0.204105
H54   H     H_    0.577063 0.769308 0.399533 0.178428
H55   H     H_    0.758851 0.344277 0.252239 0.179929
H56   H     H_    0.704238 0.761470 0.296213 0.189439
H57   H     H_    0.249349 0.338682 0.741495 0.188740
H58   H     H_    0.907368 0.169056 0.725867 0.170208
H59   H     H_    0.867015 0.229082 0.815196 0.146244
H60   H     H_    0.876796 0.226501 0.624973 0.232415
H61   H     H_    0.834943 0.288075 0.714018 0.227268
H62   H     H_    0.918287 0.332867 0.719834 0.258138
H63   H     H_    0.917860 0.350353 0.616338 0.279116
H64   H     H_    0.958779 0.277739 0.621432 0.270962
H65   H     H_    0.412571 0.223860 0.630099 0.149199
H66   H     H_    0.217131 0.966389 0.080604 0.160429
H67   H     H_    0.278643 0.923956 0.060781 0.130282
H68   H     H_    0.210016 0.033228 0.210281 0.228094
H69   H     H_    0.264435 0.982572 0.209687 0.223808
H70   H     H_    0.329909 0.034729 0.063512 0.263658
H71   H     H_    0.293193 0.106330 0.141537 0.275244
H72   H     H_    0.276599 0.081040 0.054748 0.268718
H73   H     H_    0.080294 0.277709 0.238594 0.174981
H74   H     H_    0.130773 0.272300 0.126023 0.151930
H75   H     H_    0.142731 0.367019 0.266807 0.237304
H76   H     H_    0.495226 0.767949 0.384422 0.143603
H77   H     H_    0.184891 0.368721 0.147000 0.208043
H78   H     H_    0.107051 0.409968 0.127901 0.254774
H79   H     H_    0.121721 0.471109 0.196763 0.268772
H80   H     H_    0.064639 0.410592 0.248927 0.276293
H81   H     H_    0.807473 0.967143 0.887590 0.152268
H82   H     H_    0.750668 0.910388 0.947253 0.133477
H83   H     H_    0.772488 0.019762 0.797228 0.248948
H84   H     H_    0.723095 0.949332 0.823508 0.218491
H85   H     H_    0.671646 0.989278 0.980385 0.263377
H86   H     H_    0.682457 0.064525 0.906405 0.268160
H87   H     H_    0.495809 0.226564 0.641367 0.140363
H88   H     H_    0.721844 0.056985 0.963712 0.269749
H89   H     H_    0.407367 0.669051 0.725868 0.170204
H90   H     H_    0.367016 0.729075 0.815200 0.146247
H91   H     H_    0.376796 0.726502 0.624979 0.232414
H92   H     H_    0.334943 0.788074 0.714026 0.227267
H93   H     H_    0.418286 0.832862 0.719847 0.258139
H94   H     H_    0.417858 0.850354 0.616352 0.279117
H95   H     H_    0.458778 0.777738 0.621441 0.270960
H96   H     H_    0.717623 0.466135 0.080049 0.160494
H97   H     H_    0.779012 0.424078 0.061507 0.130298
H98   H     H_    0.779841 0.500414 0.446800 0.195340
H99   H     H_    0.709449 0.533359 0.210186 0.227968
H100  H     H_    0.763642 0.483058 0.210830 0.224005
H101  H     H_    0.829691 0.535146 0.064970 0.263676
H102  H     H_    0.792526 0.606732 0.142591 0.275365
H103  H     H_    0.776662 0.581151 0.055058 0.268731
H104  H     H_    0.580271 0.777820 0.238593 0.174999
H105  H     H_    0.630765 0.772414 0.126033 0.151874
H106  H     H_    0.642704 0.867121 0.266843 0.237332
H107  H     H_    0.684866 0.868835 0.147036 0.208032
H108  H     H_    0.607021 0.910084 0.127947 0.254777
O1    O     O_R   0.746490 0.236330 0.638080 -0.643883
O2    O     O_R   0.325830 0.813840 0.483730 -0.633252
O3    O     O_R   0.325830 0.186160 0.483730 -0.634406
O4    O     O_R   0.674170 0.813840 0.516270 -0.645028
O5    O     O_R   0.174170 0.686160 0.516270 -0.625434
O6    O     O_R   0.825830 0.313840 0.483730 -0.633249
O7    O     O_R   0.825830 0.686160 0.483730 -0.634400
O8    O     O_R   0.174170 0.313840 0.516270 -0.645021
O9    O     O_R   0.739960 0.127620 0.525000 -0.626001
O10   O     O_R   0.260040 0.872380 0.475000 -0.627134
O11   O     O_R   0.260040 0.127620 0.475000 -0.625630
O12   O     O_R   0.253510 0.763670 0.361920 -0.627062
O13   O     O_R   0.739960 0.872380 0.525000 -0.634831
O14   O     O_R   0.239960 0.627620 0.525000 -0.626001
O15   O     O_R   0.760040 0.372380 0.475000 -0.627149
O16   O     O_R   0.760040 0.627620 0.475000 -0.625633
O17   O     O_R   0.239960 0.372380 0.525000 -0.634828
O18   O     O_R   0.680700 0.294870 0.629350 -0.626480
O19   O     O_R   0.319300 0.705130 0.370650 -0.626589
O20   O     O_R   0.319300 0.294870 0.370650 -0.620956
O21   O     O_R   0.680700 0.705130 0.629350 -0.622419
O22   O     O_R   0.180700 0.794870 0.629350 -0.626479
O23   O     O_R   0.253510 0.236330 0.361920 -0.645801
O24   O     O_R   0.819300 0.205130 0.370650 -0.626594
O25   O     O_R   0.819300 0.794870 0.370650 -0.620955
O26   O     O_R   0.180700 0.205130 0.629350 -0.622416
O27   O     O_R   0.062020 0.072840 0.007170 -0.633838
O28   O     O_R   0.937980 0.927160 0.992830 -0.640316
O29   O     O_R   0.937980 0.072840 0.992830 -0.628185
O30   O     O_R   0.062020 0.927160 0.007170 -0.646061
O31   O     O_R   0.562020 0.572840 0.007170 -0.633858
O32   O     O_R   0.437980 0.427160 0.992830 -0.640317
O33   O     O_R   0.437980 0.572840 0.992830 -0.628181
O34   O     O_R   0.746490 0.763670 0.638080 -0.648108
O35   O     O_R   0.562020 0.427160 0.007170 -0.646038
O36   O     O_R   0.947860 0.073950 0.109290 -0.613606
O37   O     O_R   0.052140 0.926050 0.890710 -0.625109
O38   O     O_R   0.052140 0.073950 0.890710 -0.612886
O39   O     O_R   0.947860 0.926050 0.109290 -0.621781
O40   O     O_R   0.447860 0.573950 0.109290 -0.613610
O41   O     O_R   0.552140 0.426050 0.890710 -0.625110
O42   O     O_R   0.552140 0.573950 0.890710 -0.612885
O43   O     O_R   0.447860 0.426050 0.109290 -0.621783
O44   O     O_3   0.826131 0.150254 0.779875 -0.673214
O45   O     O_R   0.246490 0.736330 0.638080 -0.643883
O46   O     O_3   0.205604 0.890505 0.176495 -0.661492
O47   O     O_3   0.148581 0.227030 0.222469 -0.669962
O48   O     O_3   0.806500 0.881071 0.811891 -0.658614
O49   O     O_3   0.326129 0.650251 0.779880 -0.673207
O50   O     O_3   0.705630 0.390505 0.176457 -0.661457
O51   O     O_3   0.648550 0.727143 0.222506 -0.669988
O52   O     O_3   0.306497 0.381059 0.811911 -0.658613
O53   O     O_R   0.753510 0.263670 0.361920 -0.627074
O54   O     O_R   0.753510 0.736330 0.361920 -0.645786
O55   O     O_R   0.246490 0.263670 0.638080 -0.648105
O56   O     O_R   0.674170 0.186160 0.516270 -0.625438
Zn1   Zn    Zn3+2 0.792340 0.208750 0.507670 0.939048
Zn2   Zn    Zn3+2 0.494040 0.500000 0.919480 0.930336
Zn3   Zn    Zn3+2 0.005960 0.000000 0.080520 0.927884
Zn4   Zn    Zn3+2 0.994040 0.000000 0.919480 0.930339
Zn5   Zn    Zn3+2 0.207660 0.791250 0.492330 0.958730
Zn6   Zn    Zn3+2 0.207660 0.208750 0.492330 0.945902
Zn7   Zn    Zn3+2 0.792340 0.791250 0.507670 0.950614
Zn8   Zn    Zn3+2 0.292340 0.708750 0.507670 0.939045
Zn9   Zn    Zn3+2 0.707660 0.291250 0.492330 0.958675
Zn10  Zn    Zn3+2 0.707660 0.708750 0.492330 0.945883
Zn11  Zn    Zn3+2 0.292340 0.291250 0.507670 0.950607
Zn12  Zn    Zn3+2 0.505960 0.500000 0.080520 0.927882

loop_
_geom_bond_atom_site_label_1
_geom_bond_atom_site_label_2
_ccdc_geom_bond_type
C132  C144  A    
C126  C127  S    
C136  O23   A    
O14   Zn8   S    
C33   O48   S    
C170  C178  A    
C50   C59   A    
C103  H64   S    
C52   C61   A    
O28   Zn4   S    
C19   H47   S    
C54   C63   A    
C58   C60   A    
C184  C193  A    
C28   C195  A    
C159  C211  A    
C108  C109  S    
C39   O38   A    
C61   C63   A    
C110  C111  S    
C62   C64   A    
C131  C140  A    
C134  C143  A    
C42   O30   A    
C57   H16   S    
C107  O47   S    
C50   C90   A    
C89   C205  S    
C162  C171  A    
C118  O50   S    
C70   C74   A    
C105  H69   S    
C4    C12   A    
C24   C85   A    
C4    H31   S    
C88   C97   A    
O30   Zn3   S    
C4    C153  A    
O5    Zn5   S    
C49   C69   A    
C123  H4    S    
C40   O39   A    
O38   Zn4   S    
C8    C157  A    
C104  C105  S    
C126  H8    S    
C109  H78   S    
C172  H24   S    
C121  H105  S    
C113  H22   S    
C134  C146  A    
C110  H81   S    
C11   C20   A    
O16   Zn10  S    
C37   C142  A    
C12   C150  A    
C107  H74   S    
C129  C152  A    
C86   C90   A    
C71   C73   A    
C179  C188  A    
C82   C91   A    
C51   C66   A    
C120  H102  S    
C142  C151  A    
O33   Zn2   S    
O54   Zn10  S    
O21   Zn10  S    
C154  C163  A    
O45   Zn8   S    
C54   C70   A    
C23   H51   S    
C131  C210  A    
C164  C173  A    
C163  C172  A    
C18   H46   S    
C173  C182  A    
C119  H100  S    
C20   C146  A    
C112  O19   A    
C10   C160  A    
C79   C85   A    
C105  C106  S    
C129  C208  A    
C66   C77   A    
C124  C135  A    
C156  C209  A    
C57   C78   A    
C6    H34   S    
C41   O29   A    
C19   C148  A    
C103  H62   S    
C25   C192  A    
C200  O4    A    
C191  O55   A    
C8    C17   A    
C56   C59   A    
O36   Zn3   S    
C29   H57   S    
C45   C163  S    
C80   C88   A    
C23   C32   A    
C33   C139  A    
C14   C149  A    
C34   C140  A    
C159  C167  A    
C16   C151  A    
C106  H72   S    
C84   C93   A    
C160  C168  A    
C48   C67   A    
C86   C95   A    
C24   C77   A    
C117  H94   S    
C118  H97   S    
O8    Zn6   S    
C121  O51   S    
C2    C81   A    
C182  C190  A    
C10   H38   S    
C55   C71   A    
C2    C75   A    
C5    C154  A    
C100  H59   S    
C78   C87   A    
C177  H29   S    
C38   C143  A    
C67   C77   A    
O29   Zn4   S    
O19   Zn8   S    
C198  O2    A    
C58   H76   S    
C197  O9    A    
C133  C142  A    
C22   H50   S    
C173  H25   S    
C116  H92   S    
C115  C116  S    
C7    H35   S    
C69   C76   A    
C108  H77   S    
C30   O44   S    
C46   C82   A    
C47   C162  S    
C203  O15   A    
C172  C181  A    
C7    C156  A    
C98   H12   S    
C29   C38   A    
C114  H85   S    
C46   H15   S    
C37   O51   S    
C91   C204  S    
C125  H6    S    
C91   C96   A    
C61   H43   S    
C45   O33   A    
C87   C96   A    
O22   Zn5   S    
C171  C179  A    
C132  C211  A    
C72   C75   A    
C92   C198  S    
O7    Zn7   S    
C141  C150  A    
C139  C148  A    
C111  H83   S    
C64   H1    S    
C25   H52   S    
C3    C161  A    
C165  C174  A    
C106  H70   S    
C93   C197  S    
C32   C138  A    
C199  O3    A    
O26   Zn6   S    
C27   C194  A    
C180  C186  S    
C201  O14   A    
O34   Zn7   S    
C122  H106  S    
O9    Zn1   S    
C31   C137  A    
C17   H45   S    
C21   C188  A    
O25   Zn7   S    
C203  O6    A    
C190  C208  A    
C132  C141  A    
C83   C101  A    
O3    Zn11  S    
C6    C155  A    
C60   H54   S    
C112  C181  S    
O20   Zn11  S    
C205  O17   A    
C3    C134  A    
C103  H63   S    
C195  C212  A    
O6    Zn1   S    
C193  C210  A    
C28   C37   A    
C138  C146  A    
C175  H27   S    
O2    Zn8   S    
C131  C145  A    
C115  H90   S    
C102  C103  S    
C50   C65   A    
C51   C79   A    
C9    C18   A    
C136  C182  S    
C105  H68   S    
C175  C184  A    
C130  C209  A    
C119  H99   S    
C51   C60   A    
C1    O18   A    
C115  O49   S    
C140  C149  A    
C109  H80   S    
C23   C190  A    
C204  O16   A    
C96   H98   S    
C123  H3    S    
C187  C196  A    
C38   O52   S    
C73   C74   A    
C197  O56   A    
C185  C194  A    
O39   Zn3   S    
C183  C192  A    
C176  C185  A    
C100  H58   S    
C40   O28   A    
C121  H104  S    
C110  H82   S    
C188  C206  A    
C166  C175  A    
C65   C76   A    
C102  H60   S    
C137  C145  A    
C107  H73   S    
C49   C101  A    
O17   Zn11  S    
C168  C177  A    
C11   C161  A    
C127  H10   S    
C169  O53   A    
C181  C189  A    
C27   H55   S    
C65   C67   A    
C180  O54   A    
C93   C99   A    
C81   C89   A    
O27   Zn3   S    
C114  H88   S    
O12   Zn5   S    
C130  C139  A    
C104  H67   S    
C87   C203  S    
C15   C152  A    
C205  O8    A    
C43   C165  S    
C56   H87   S    
C95   C98   A    
C155  C208  A    
C53   C57   A    
C171  H23   S    
C74   C202  A    
C17   C145  A    
C36   C141  A    
C158  O22   A    
C10   C19   A    
C36   O50   S    
O42   Zn2   S    
C22   C189  A    
C5    C14   A    
C99   H13   S    
C125  O52   S    
C178  C187  A    
C7    C16   A    
C176  H28   S    
C147  O34   A    
C117  H93   S    
C59   H65   S    
C125  C126  S    
C126  H7    S    
C82   C202  A    
C109  H79   S    
C124  C150  A    
C123  H108  S    
C5    H33   S    
O43   Zn12  S    
C47   O41   A    
C204  O7    A    
C201  O5    A    
C174  C183  A    
C1    O1    A    
C119  C120  S    
C62   H32   S    
C200  O13   A    
C27   C36   A    
C21   C30   A    
C13   C83   A    
C3    C196  A    
C12   H40   S    
C153  C162  A    
O11   Zn6   S    
C120  H101  S    
C18   C144  A    
C16   H44   S    
C156  C165  A    
C189  C207  A    
C39   O27   A    
O41   Zn2   S    
C111  C114  S    
C94   C200  S    
C102  H61   S    
C192  C209  A    
C100  O44   S    
C177  C186  A    
C66   C69   A    
C128  C149  A    
C8    H36   S    
C30   C135  A    
C130  C151  A    
C114  H86   S    
C169  O24   A    
C44   C164  S    
C136  O20   A    
C26   C193  A    
C158  C184  S    
O23   Zn6   S    
C42   C166  S    
C48   C113  A    
C178  H30   S    
C43   O42   A    
C125  H5    S    
C68   C80   A    
C84   C113  A    
C44   O32   A    
C45   O40   A    
C35   H14   S    
C35   C81   A    
C41   O36   A    
C92   C98   A    
C199  O11   A    
C83   C92   A    
O35   Zn12  S    
C52   C72   A    
C191  O26   A    
C39   C170  S    
C174  H26   S    
O10   Zn5   S    
C9    C159  A    
O15   Zn9   S    
C42   O37   A    
C116  C117  S    
C106  H71   S    
C44   O43   A    
C118  C119  S    
C194  C211  A    
C26   C34   A    
C129  C138  A    
C117  H95   S    
C118  H96   S    
C13   C86   A    
O55   Zn11  S    
C128  C207  A    
O1    Zn1   S    
C88   C201  S    
C101  H20   S    
O53   Zn9   S    
C187  C191  S    
C52   C68   A    
C127  H11   S    
C26   H53   S    
C6    C15   A    
C157  C210  A    
C104  O46   S    
C46   C54   A    
C31   O46   S    
C160  C212  A    
C110  O48   S    
O37   Zn4   S    
C22   C31   A    
C35   C55   A    
O56   Zn9   S    
C120  H103  S    
C186  C195  A    
C104  H66   S    
C112  O12   A    
C116  H91   S    
C11   H39   S    
C49   C58   A    
C89   C97   A    
O18   Zn9   S    
C198  O10   A    
C9    H37   S    
C128  C137  A    
C79   H18   S    
C32   O47   S    
C63   H21   S    
C85   C94   A    
C13   C76   A    
C107  C108  S    
C55   C64   A    
C100  C102  S    
C121  C122  S    
C115  H89   S    
C133  C148  A    
C34   O49   S    
O4    Zn10  S    
C180  O25   A    
C20   H48   S    
C161  C170  A    
C21   H49   S    
C135  C144  A    
C90   H19   S    
C158  O45   A    
C47   O35   A    
C68   H17   S    
C147  C183  S    
C48   C56   A    
C143  C152  A    
C111  H84   S    
C124  C206  A    
C53   C73   A    
C78   C202  A    
O24   Zn1   S    
O13   Zn7   S    
C157  C166  A    
C43   O31   A    
C155  C164  A    
C29   C196  A    
C28   H56   S    
O32   Zn2   S    
C97   H2    S    
C24   C84   A    
C169  C185  S    
C108  H75   S    
C71   C75   A    
C1    C179  S    
O31   Zn12  S    
C14   H41   S    
C94   C99   A    
C41   C167  S    
C40   C168  S    
C2    C80   A    
C127  H9    S    
C153  C206  A    
C122  H107  S    
C53   C62   A    
C95   C199  S    
O40   Zn12  S    
C25   C33   A    
C133  C212  A    
C70   C72   A    
C122  C123  S    
C154  C207  A    
C167  C176  A    
C147  O21   A    
C15   H42   S    
