data_str_m3_o40_o41_f0_fof.sym.121
_audit_creation_date              2012-12-10T16:37:47-0500
_audit_creation_method            fapswitch 2.2
_symmetry_space_group_name_H-M    P1
_symmetry_Int_Tables_number       1
_space_group_crystal_system       triclinic
_cell_length_a                    28.00947
_cell_length_b                    18.35582
_cell_length_c                    16.9607
_cell_angle_alpha                 90.245707
_cell_angle_beta                  61.090407
_cell_angle_gamma                 89.998896
_cell_volume                      7633.35789891

loop_
_atom_site_label
_atom_site_type_symbol
_atom_type_description
_atom_site_fract_x
_atom_site_fract_y
_atom_site_fract_z
_atom_type_partial_charge
C1    C     C_R   0.700628 0.265587 0.677167 0.864839
C2    C     C_R   0.294066 0.722623 0.326718 0.850154
C3    C     C_R   0.299245 0.265762 0.322770 0.855198
C4    C     C_R   0.706533 0.721750 0.672699 0.851872
C5    C     C_R   0.200904 0.766073 0.677022 0.860844
C6    C     C_R   0.794022 0.222654 0.326731 0.850450
C7    C     C_R   0.798786 0.766640 0.322901 0.870626
C8    C     C_R   0.206248 0.222228 0.673028 0.853907
C9    C     C_R   0.914828 0.498668 0.459325 -0.069756
C10   C     C_R   0.080437 0.499542 0.558503 -0.062207
C11   C     C_R   0.418930 0.999177 0.442528 -0.060799
C12   C     C_R   0.583321 0.000428 0.544736 -0.070119
C13   C     C_R   0.072731 0.368424 0.574862 0.568282
C14   C     C_R   0.922731 0.629256 0.443712 0.580031
C15   C     C_R   0.926020 0.368340 0.435044 0.573606
C16   C     C_R   0.071722 0.630760 0.577705 0.557582
C17   C     C_R   0.574128 0.869614 0.564202 0.568799
C18   C     C_R   0.428698 0.129556 0.419265 0.562404
C19   C     C_R   0.427324 0.868192 0.424830 0.574064
C20   C     C_R   0.575495 0.131912 0.558819 0.570470
C21   C     C_R   0.710840 0.245245 0.963146 -0.053552
C22   C     C_R   0.273133 0.715104 0.051038 -0.057550
C23   C     C_R   0.291605 0.240734 0.034290 -0.053550
C24   C     C_R   0.731578 0.707767 0.943981 -0.049334
C25   C     C_R   0.211802 0.746599 0.962616 -0.056773
C26   C     C_R   0.772561 0.214809 0.051319 -0.054654
C27   C     C_R   0.792768 0.739048 0.032777 -0.052841
C28   C     C_R   0.230226 0.210032 0.945555 -0.052648
C29   C     C_R   0.761671 0.208499 0.916655 0.092354
C30   C     C_R   0.218147 0.738207 0.101133 0.092825
C31   C     C_R   0.241012 0.204550 0.080103 0.069343
C32   C     C_R   0.786790 0.729274 0.893503 0.073084
C33   C     C_R   0.262643 0.709852 0.916070 0.092742
C34   C     C_R   0.717926 0.239209 0.101142 0.095890
C35   C     C_R   0.742245 0.702733 0.078552 0.069277
C36   C     C_R   0.285280 0.231927 0.895336 0.075422
C37   C     C_R   0.795889 0.201376 0.957319 -0.063492
C38   C     C_R   0.189987 0.763631 0.055322 -0.044498
C39   C     C_R   0.206887 0.199296 0.039504 -0.065534
C40   C     C_R   0.815025 0.754360 0.939728 -0.067968
C41   C     C_R   0.296731 0.702388 0.956861 -0.065211
C42   C     C_R   0.689602 0.263401 0.055316 -0.040319
C43   C     C_R   0.708223 0.697190 0.037946 -0.070684
C44   C     C_R   0.313334 0.256978 0.941682 -0.067240
C45   C     C_R   0.634130 0.307368 0.959035 0.024689
C46   C     C_R   0.358437 0.679793 0.048535 0.010958
C47   C     C_R   0.366330 0.306430 0.040720 0.010334
C48   C     C_R   0.644758 0.675455 0.949545 0.010238
C49   C     C_R   0.135412 0.808934 0.958042 0.021194
C50   C     C_R   0.857758 0.178878 0.048798 0.010183
C51   C     C_R   0.866543 0.806283 0.040233 0.010018
C52   C     C_R   0.143712 0.177115 0.950544 0.021005
C53   C     C_R   0.611247 0.336832 0.906108 -0.115732
C54   C     C_R   0.386179 0.658836 0.096795 -0.112642
C55   C     C_R   0.388327 0.337392 0.094246 -0.110633
C56   C     C_R   0.616064 0.655902 0.902080 -0.108255
C57   C     C_R   0.112538 0.838516 0.905164 -0.107479
C58   C     C_R   0.885639 0.158233 0.097017 -0.112141
C59   C     C_R   0.886805 0.839656 0.094994 -0.105424
C60   C     C_R   0.115332 0.156938 0.902739 -0.112420
C61   C     C_R   0.631553 0.316525 0.817333 -0.318132
C62   C     C_R   0.365493 0.677736 0.185624 -0.297244
C63   C     C_R   0.367669 0.317831 0.183240 -0.304636
C64   C     C_R   0.636308 0.675081 0.813505 -0.302288
C65   C     C_R   0.133422 0.819392 0.816104 -0.305377
C66   C     C_R   0.865067 0.177355 0.185726 -0.298184
C67   C     C_R   0.863382 0.824311 0.185386 -0.326146
C68   C     C_R   0.135657 0.176139 0.814093 -0.300026
C69   C     C_R   0.676147 0.271409 0.775657 -0.114693
C70   C     C_R   0.312839 0.702813 0.233423 -0.107192
C71   C     C_R   0.323680 0.271657 0.224274 -0.123973
C72   C     C_R   0.688882 0.700167 0.765058 -0.107279
C73   C     C_R   0.177200 0.773066 0.775028 -0.120974
C74   C     C_R   0.812530 0.202792 0.233531 -0.105959
C75   C     C_R   0.822100 0.774303 0.224903 -0.113626
C76   C     C_R   0.188251 0.201256 0.765764 -0.107248
C77   C     C_R   0.700952 0.242278 0.826058 0.086650
C78   C     C_R   0.279389 0.708535 0.191099 0.085921
C79   C     C_R   0.299704 0.240956 0.173100 0.080027
C80   C     C_R   0.723320 0.704034 0.805793 0.088081
C81   C     C_R   0.202058 0.743875 0.825350 0.084678
C82   C     C_R   0.778992 0.208964 0.191307 0.084419
C83   C     C_R   0.799566 0.741317 0.172800 0.081753
C84   C     C_R   0.222428 0.205652 0.806943 0.086057
C85   C     C_R   0.690595 0.129568 0.536616 0.915819
C86   C     C_R   0.309545 0.870011 0.461683 0.957336
C87   C     C_R   0.309330 0.129354 0.462693 0.906892
C88   C     C_R   0.690529 0.870666 0.536828 0.954666
C89   C     C_R   0.190517 0.629598 0.537674 0.908626
C90   C     C_R   0.809449 0.370181 0.462824 0.959001
C91   C     C_R   0.809080 0.629091 0.464342 0.925497
C92   C     C_R   0.190420 0.370234 0.538301 0.956892
C93   C     C_R   0.681865 0.264899 0.916223 0.071022
C94   C     C_R   0.303813 0.702054 0.096588 0.069184
C95   C     C_R   0.319396 0.262528 0.082572 0.070981
C96   C     C_R   0.699773 0.696469 0.899992 0.069303
C97   C     C_R   0.183141 0.766694 0.915364 0.069752
C98   C     C_R   0.803251 0.201702 0.096860 0.069127
C99   C     C_R   0.819787 0.762082 0.081775 0.073213
C100  C     C_R   0.198651 0.198378 0.901248 0.067992
C101  C     C_R   0.612147 0.320828 0.052229 -0.307800
C102  C     C_R   0.383313 0.677264 0.954449 -0.281956
C103  C     C_R   0.388487 0.319119 0.947545 -0.323037
C104  C     C_R   0.620437 0.674648 0.044150 -0.283913
C105  C     C_R   0.112914 0.821331 0.051344 -0.344213
C106  C     C_R   0.882502 0.176110 0.954673 -0.280730
C107  C     C_R   0.889830 0.817236 0.946460 -0.308445
C108  C     C_R   0.119206 0.176624 0.045198 -0.302517
C109  C     C_R   0.641021 0.305166 0.098904 0.453631
C110  C     C_R   0.353301 0.683652 0.908191 0.465629
C111  C     C_R   0.360748 0.300513 0.900452 0.454670
C112  C     C_R   0.651012 0.686977 0.088434 0.473724
C113  C     C_R   0.141500 0.806091 0.098802 0.470394
C114  C     C_R   0.852427 0.182707 0.908508 0.465455
C115  C     C_R   0.863036 0.797090 0.898247 0.461436
C116  C     C_R   0.149703 0.188900 0.089780 0.462207
C117  C     C_R   0.743546 0.190479 0.791120 -0.193378
C118  C     C_R   0.222320 0.716274 0.239540 -0.204340
C119  C     C_R   0.257381 0.188668 0.207436 -0.211918
C120  C     C_R   0.780449 0.711671 0.756038 -0.222154
C121  C     C_R   0.244515 0.691904 0.790562 -0.194640
C122  C     C_R   0.722018 0.218611 0.239731 -0.196356
C123  C     C_R   0.757849 0.688231 0.206798 -0.212882
C124  C     C_R   0.279547 0.213569 0.757551 -0.220803
C125  C     C_R   0.774475 0.176615 0.833417 -0.149661
C126  C     C_R   0.192442 0.730687 0.195525 -0.132887
C127  C     C_R   0.227356 0.173159 0.163632 -0.160464
C128  C     C_R   0.811462 0.723836 0.798973 -0.169701
C129  C     C_R   0.275556 0.678267 0.832649 -0.149494
C130  C     C_R   0.692350 0.234153 0.195671 -0.137718
C131  C     C_R   0.728383 0.671742 0.162365 -0.150474
C132  C     C_R   0.310238 0.226486 0.800817 -0.172443
C133  C     C_R   0.071554 0.103518 0.937094 0.899683
C134  C     C_R   0.927439 0.897641 0.063760 0.911343
C135  C     C_R   0.928866 0.103906 0.062786 0.898307
C136  C     C_R   0.072182 0.897149 0.936386 0.918732
C137  C     C_R   0.571833 0.603226 0.936831 0.901899
C138  C     C_R   0.427944 0.396978 0.063437 0.916736
C139  C     C_R   0.429126 0.604135 0.062594 0.897414
C140  C     C_R   0.571697 0.396609 0.936785 0.915696
C141  C     C_R   0.540401 0.132760 0.521143 -0.246514
C142  C     C_R   0.464528 0.866923 0.458518 -0.265387
C143  C     C_R   0.466535 0.131761 0.451788 -0.225144
C144  C     C_R   0.538116 0.867786 0.528182 -0.255373
C145  C     C_R   0.033421 0.631926 0.546387 -0.239923
C146  C     C_R   0.962249 0.366639 0.470867 -0.263866
C147  C     C_R   0.957780 0.631191 0.481228 -0.257416
C148  C     C_R   0.035855 0.366750 0.540632 -0.252558
C149  C     C_R   0.523012 0.198554 0.500323 0.520632
C150  C     C_R   0.484132 0.801020 0.474471 0.534133
C151  C     C_R   0.487898 0.197925 0.463329 0.527695
C152  C     C_R   0.519210 0.801474 0.511454 0.547384
C153  C     C_R   0.012894 0.697907 0.532372 0.558340
C154  C     C_R   0.983198 0.300633 0.483824 0.536532
C155  C     C_R   0.977060 0.697460 0.496854 0.534487
C156  C     C_R   0.018293 0.300639 0.520829 0.544308
C157  C     C_R   0.483345 0.065912 0.473623 -0.085204
C158  C     C_R   0.520917 0.933755 0.508001 -0.083466
C159  C     C_R   0.522132 0.066286 0.504282 -0.083203
C160  C     C_R   0.482238 0.933355 0.477176 -0.082332
C161  C     C_R   0.975874 0.565166 0.499219 -0.083302
C162  C     C_R   0.016978 0.432899 0.524320 -0.082951
C163  C     C_R   0.015483 0.565494 0.527935 -0.083592
C164  C     C_R   0.978123 0.432687 0.493877 -0.079279
C165  C     C_R   0.956912 0.498805 0.482770 0.096900
C166  C     C_R   0.036555 0.499306 0.539435 0.096277
C167  C     C_R   0.462453 0.999442 0.462312 0.098610
C168  C     C_R   0.541214 0.000200 0.521050 0.094484
C169  C     C_R   0.894980 0.432561 0.444466 -0.131065
C170  C     C_R   0.102656 0.566154 0.567031 -0.165705
C171  C     C_R   0.102808 0.433138 0.566733 -0.138232
C172  C     C_R   0.893032 0.564950 0.449916 -0.164995
C173  C     C_R   0.396862 0.932731 0.433820 -0.135549
C174  C     C_R   0.604746 0.067032 0.555111 -0.154238
C175  C     C_R   0.604310 0.934024 0.556860 -0.133303
C176  C     C_R   0.396892 0.065453 0.433272 -0.170500
C177  C     C_R   0.845195 0.433844 0.439724 -0.251762
C178  C     C_R   0.154430 0.565445 0.564652 -0.246662
C179  C     C_R   0.154341 0.434279 0.565161 -0.250345
C180  C     C_R   0.844296 0.564496 0.442574 -0.232159
C181  C     C_R   0.345426 0.933809 0.435117 -0.251361
C182  C     C_R   0.654474 0.065887 0.560244 -0.231744
C183  C     C_R   0.654410 0.934900 0.560670 -0.248646
C184  C     C_R   0.345133 0.064832 0.435963 -0.249593
C185  C     C_R   0.823765 0.499332 0.430632 0.522704
C186  C     C_R   0.176516 0.499971 0.572429 0.529085
C187  C     C_R   0.323031 0.999387 0.428270 0.532389
C188  C     C_R   0.675473 0.000422 0.570698 0.520310
H1    H     H_    0.614805 0.340711 0.777836 0.190786
H2    H     H_    0.389303 0.667704 0.219432 0.195798
H3    H     H_    0.384327 0.342430 0.222943 0.195013
H4    H     H_    0.611903 0.666043 0.780475 0.192672
H5    H     H_    0.117182 0.844598 0.776398 0.195132
H6    H     H_    0.888938 0.167374 0.219444 0.195589
H7    H     H_    0.876673 0.853802 0.226799 0.199281
H8    H     H_    0.111386 0.166907 0.780860 0.193167
H9    H     H_    0.572194 0.343700 0.090428 0.176063
H10   H     H_    0.426963 0.671136 0.915540 0.165467
H11   H     H_    0.427690 0.343886 0.907802 0.193887
H12   H     H_    0.576840 0.668014 0.085447 0.172119
H13   H     H_    0.072405 0.841685 0.088265 0.177004
H14   H     H_    0.926148 0.170287 0.915690 0.166081
H15   H     H_    0.928922 0.842591 0.907134 0.195090
H16   H     H_    0.075591 0.169874 0.086070 0.167225
H17   H     H_    0.753361 0.158056 0.732076 0.191247
H18   H     H_    0.199481 0.708583 0.311536 0.179539
H19   H     H_    0.246842 0.157598 0.267348 0.197992
H20   H     H_    0.802407 0.706097 0.683601 0.186112
H21   H     H_    0.254251 0.659199 0.731777 0.190651
H22   H     H_    0.698947 0.211905 0.311832 0.181991
H23   H     H_    0.746984 0.657794 0.267244 0.200871
H24   H     H_    0.301793 0.207601 0.685192 0.185755
H25   H     H_    0.806469 0.137132 0.801908 0.179057
H26   H     H_    0.148598 0.732265 0.236586 0.188789
H27   H     H_    0.194552 0.134145 0.194480 0.205287
H28   H     H_    0.855120 0.726806 0.756757 0.213366
H29   H     H_    0.307630 0.638988 0.800853 0.180550
H30   H     H_    0.648629 0.238786 0.236778 0.170143
H31   H     H_    0.695684 0.632570 0.193137 0.208960
H32   H     H_    0.353934 0.229822 0.758975 0.201198
O1    O     O_R   0.746490 0.236330 0.638080 -0.639874
O2    O     O_R   0.253510 0.763670 0.361920 -0.633910
O3    O     O_R   0.253510 0.236330 0.361920 -0.642914
O4    O     O_R   0.746490 0.763670 0.638080 -0.637387
O5    O     O_R   0.246490 0.736330 0.638080 -0.641560
O6    O     O_R   0.753510 0.263670 0.361920 -0.632023
O7    O     O_R   0.753510 0.736330 0.361920 -0.644032
O8    O     O_R   0.246490 0.263670 0.638080 -0.640940
O9    O     O_R   0.674170 0.186160 0.516270 -0.596920
O10   O     O_R   0.325830 0.813840 0.483730 -0.574606
O11   O     O_R   0.325830 0.186160 0.483730 -0.603982
O12   O     O_R   0.674170 0.813840 0.516270 -0.576945
O13   O     O_R   0.174170 0.686160 0.516270 -0.600403
O14   O     O_R   0.825830 0.313840 0.483730 -0.575394
O15   O     O_R   0.825830 0.686160 0.483730 -0.606388
O16   O     O_R   0.174170 0.313840 0.516270 -0.573995
O17   O     O_R   0.739960 0.127620 0.525000 -0.565932
O18   O     O_R   0.260040 0.872380 0.475000 -0.552151
O19   O     O_R   0.260040 0.127620 0.475000 -0.561695
O20   O     O_R   0.739960 0.872380 0.525000 -0.553238
O21   O     O_R   0.239960 0.627620 0.525000 -0.563882
O22   O     O_R   0.760040 0.372380 0.475000 -0.552657
O23   O     O_R   0.760040 0.627620 0.475000 -0.564883
O24   O     O_R   0.239960 0.372380 0.525000 -0.553124
O25   O     O_R   0.680700 0.294870 0.629350 -0.614485
O26   O     O_R   0.319300 0.705130 0.370650 -0.611176
O27   O     O_R   0.319300 0.294870 0.370650 -0.607560
O28   O     O_R   0.680700 0.705130 0.629350 -0.616630
O29   O     O_R   0.180700 0.794870 0.629350 -0.609526
O30   O     O_R   0.819300 0.205130 0.370650 -0.614438
O31   O     O_R   0.819300 0.794870 0.370650 -0.617358
O32   O     O_R   0.180700 0.205130 0.629350 -0.610665
O33   O     O_R   0.062020 0.072840 0.007170 -0.615575
O34   O     O_R   0.937980 0.927160 0.992830 -0.632122
O35   O     O_R   0.937980 0.072840 0.992830 -0.625494
O36   O     O_R   0.062020 0.927160 0.007170 -0.631778
O37   O     O_R   0.562020 0.572840 0.007170 -0.614094
O38   O     O_R   0.437980 0.427160 0.992830 -0.633649
O39   O     O_R   0.437980 0.572840 0.992830 -0.624404
O40   O     O_R   0.562020 0.427160 0.007170 -0.624283
O41   O     O_R   0.947860 0.073950 0.109290 -0.610835
O42   O     O_R   0.052140 0.926050 0.890710 -0.612948
O43   O     O_R   0.052140 0.073950 0.890710 -0.613377
O44   O     O_R   0.947860 0.926050 0.109290 -0.621371
O45   O     O_R   0.447860 0.573950 0.109290 -0.609604
O46   O     O_R   0.552140 0.426050 0.890710 -0.621062
O47   O     O_R   0.552140 0.573950 0.890710 -0.612293
O48   O     O_R   0.447860 0.426050 0.109290 -0.618098
Zn1   Zn    Zn3+2 0.792340 0.208750 0.507670 1.081240
Zn2   Zn    Zn3+2 0.207660 0.791250 0.492330 1.085830
Zn3   Zn    Zn3+2 0.207660 0.208750 0.492330 1.079355
Zn4   Zn    Zn3+2 0.792340 0.791250 0.507670 1.072489
Zn5   Zn    Zn3+2 0.292340 0.708750 0.507670 1.082610
Zn6   Zn    Zn3+2 0.707660 0.291250 0.492330 1.075948
Zn7   Zn    Zn3+2 0.707660 0.708750 0.492330 1.077068
Zn8   Zn    Zn3+2 0.292340 0.291250 0.507670 1.069060
Zn9   Zn    Zn3+2 0.505960 0.500000 0.080520 0.936377
Zn10  Zn    Zn3+2 0.494040 0.500000 0.919480 0.906767
Zn11  Zn    Zn3+2 0.005960 0.000000 0.080520 0.914974
Zn12  Zn    Zn3+2 0.994040 0.000000 0.919480 0.918720
F1    F     F_    0.037922 0.235874 0.531265 -0.622430
F2    F     F_    0.959578 0.762049 0.481141 -0.609648
F3    F     F_    0.968313 0.235578 0.464040 -0.609270
F4    F     F_    0.029839 0.763169 0.547703 -0.596405
F5    F     F_    0.536894 0.736684 0.526130 -0.620531
F6    F     F_    0.472654 0.262613 0.443661 -0.628293
F7    F     F_    0.467507 0.735768 0.458480 -0.607939
F8    F     F_    0.541917 0.263735 0.511582 -0.621365
F9    F     F_    0.780153 0.499552 0.415767 -0.639978
F10   F     F_    0.222417 0.500139 0.580922 -0.643623
F11   F     F_    0.277105 0.999533 0.419846 -0.639929
F12   F     F_    0.719511 0.000427 0.584424 -0.644802
O49   O     O_3   0.076805 0.308312 0.620406 -0.573758
C189  C     C_3   0.038345 0.313800 0.713117 0.109438
H33   H     H_    0.023413 0.258012 0.736948 0.173237
H34   H     H_    0.001566 0.347099 0.727638 0.116869
C190  C     C_3   0.065509 0.343163 0.766417 -0.379935
H35   H     H_    0.104707 0.314195 0.745085 0.238763
H36   H     H_    0.074257 0.402114 0.752347 0.211859
C191  C     C_3   0.029041 0.332804 0.867590 -0.946521
H37   H     H_    0.989595 0.361668 0.890833 0.269069
H38   H     H_    0.049594 0.355325 0.904260 0.271606
H39   H     H_    0.021148 0.273948 0.883777 0.254322
O50   O     O_3   0.929859 0.681353 0.380260 -0.552097
C192  C     C_3   0.966252 0.652486 0.293689 0.108930
H40   H     H_    0.942711 0.622293 0.266799 0.131638
H41   H     H_    0.997218 0.614200 0.294093 0.076661
C193  C     C_3   0.998322 0.713792 0.229655 -0.360591
H42   H     H_    0.020218 0.744995 0.258515 0.240991
H43   H     H_    0.029055 0.690155 0.164091 0.171666
C194  C     C_3   0.960764 0.763998 0.213744 -0.787478
H44   H     H_    0.938073 0.731922 0.187035 0.246590
H45   H     H_    0.984615 0.806273 0.163883 0.223010
H46   H     H_    0.931772 0.791343 0.277693 0.303326
O51   O     O_3   0.923522 0.308719 0.386747 -0.564432
C195  C     C_3   0.961690 0.316251 0.294284 0.087366
H47   H     H_    0.978945 0.261258 0.268821 0.179574
H48   H     H_    0.996688 0.352684 0.280984 0.095570
C196  C     C_3   0.933515 0.342852 0.241603 -0.360935
H49   H     H_    0.895721 0.310999 0.261570 0.241078
H50   H     H_    0.922209 0.401151 0.257475 0.210784
C197  C     C_3   0.970716 0.334531 0.140197 -0.965348
H51   H     H_    0.008818 0.366203 0.118413 0.260164
H52   H     H_    0.949476 0.355139 0.103870 0.278756
H53   H     H_    0.981201 0.276255 0.122042 0.256657
O52   O     O_3   0.074181 0.690603 0.625940 -0.561964
C198  C     C_3   0.058930 0.670243 0.715555 0.088769
H54   H     H_    0.096449 0.658777 0.720264 0.131381
H55   H     H_    0.032059 0.621132 0.738858 0.112620
C199  C     C_3   0.027768 0.733060 0.779116 -0.276033
H56   H     H_    0.052203 0.783641 0.755515 0.237613
H57   H     H_    0.988868 0.742163 0.777988 0.244633
C200  C     C_3   0.015299 0.716923 0.875519 -0.992354
H58   H     H_    0.986023 0.671042 0.903292 0.271410
H59   H     H_    0.997091 0.765721 0.918625 0.259216
H60   H     H_    0.053207 0.702572 0.877543 0.271851
O53   O     O_3   0.575644 0.810765 0.613795 -0.573859
C201  C     C_3   0.535831 0.819444 0.705449 0.111743
H61   H     H_    0.514136 0.766833 0.728390 0.178859
H62   H     H_    0.503889 0.861287 0.717996 0.109631
C202  C     C_3   0.563535 0.837286 0.761916 -0.369997
H63   H     H_    0.598440 0.799714 0.743345 0.242523
H64   H     H_    0.579443 0.893871 0.747651 0.212957
C203  C     C_3   0.524005 0.829900 0.862530 -0.954909
H65   H     H_    0.488729 0.867295 0.883116 0.269865
H66   H     H_    0.545236 0.844004 0.901406 0.272016
H67   H     H_    0.509021 0.772961 0.878777 0.255121
O54   O     O_3   0.426915 0.187738 0.368318 -0.568517
C204  C     C_3   0.433990 0.163581 0.283518 0.105057
H68   H     H_    0.394052 0.166463 0.284649 0.137657
H69   H     H_    0.449874 0.106665 0.265342 0.108702
C205  C     C_3   0.474508 0.213162 0.209297 -0.329862
H70   H     H_    0.461155 0.270808 0.225767 0.231142
H71   H     H_    0.515052 0.206587 0.205128 0.207320
C206  C     C_3   0.479955 0.193650 0.117698 -0.976566
H72   H     H_    0.497035 0.137875 0.097275 0.266997
H73   H     H_    0.507868 0.232811 0.066334 0.259239
H74   H     H_    0.439673 0.196100 0.120126 0.276204
O55   O     O_3   0.423173 0.807909 0.379069 -0.566257
C207  C     C_3   0.461305 0.813089 0.286261 0.089829
H75   H     H_    0.477009 0.757233 0.262148 0.180180
H76   H     H_    0.497425 0.847692 0.271600 0.095426
C208  C     C_3   0.433601 0.841183 0.233483 -0.363295
H77   H     H_    0.394905 0.811269 0.254457 0.239426
H78   H     H_    0.423863 0.899971 0.248370 0.210984
C209  C     C_3   0.470290 0.831216 0.132176 -0.964555
H79   H     H_    0.509209 0.861145 0.109431 0.260588
H80   H     H_    0.449370 0.852793 0.095779 0.278493
H81   H     H_    0.479265 0.772509 0.115124 0.255786
O56   O     O_3   0.576721 0.192649 0.606459 -0.549371
C210  C     C_3   0.542453 0.182386 0.700017 0.065082
H82   H     H_    0.567109 0.190332 0.734666 0.148344
H83   H     H_    0.523962 0.126921 0.718991 0.071306
C211  C     C_3   0.496341 0.238561 0.735295 -0.307026
H84   H     H_    0.473084 0.232888 0.697931 0.245614
H85   H     H_    0.468029 0.227467 0.807496 0.164965
C212  C     C_3   0.517877 0.316403 0.725638 -0.681671
H86   H     H_    0.534039 0.325505 0.772992 0.206709
H87   H     H_    0.484437 0.355959 0.741971 0.238366
H88   H     H_    0.550510 0.327036 0.655731 0.308734
O57   O     O_3   0.630341 0.343419 0.177216 -0.642799
C213  C     C_3   0.574275 0.349835 0.240783 0.083033
H89   H     H_    0.569591 0.337439 0.308222 0.218980
H90   H     H_    0.548088 0.309841 0.230666 0.121287
C214  C     C_3   0.554762 0.428216 0.242926 -0.351382
H91   H     H_    0.575359 0.464969 0.269328 0.243073
H92   H     H_    0.565791 0.446609 0.173941 0.232746
C215  C     C_3   0.493127 0.434788 0.302466 -0.824493
H93   H     H_    0.471754 0.400562 0.275120 0.249541
H94   H     H_    0.480472 0.492360 0.304181 0.253563
H95   H     H_    0.481020 0.417331 0.372260 0.298689
O58   O     O_3   0.381308 0.680451 0.814646 -0.640248
C216  C     C_3   0.407048 0.611393 0.783812 0.021971
H96   H     H_    0.392991 0.588042 0.738120 0.165209
H97   H     H_    0.396604 0.570412 0.838254 0.124583
C217  C     C_3   0.469021 0.619969 0.729171 -0.299126
H98   H     H_    0.479152 0.656689 0.671350 0.288727
H99   H     H_    0.485162 0.644383 0.771378 0.195681
C218  C     C_3   0.496996 0.546480 0.693910 -0.884054
H100  H     H_    0.488282 0.509409 0.750929 0.236685
H101  H     H_    0.541790 0.554445 0.654201 0.278402
H102  H     H_    0.482552 0.520915 0.649773 0.267778
O59   O     O_3   0.379413 0.328494 0.814841 -0.671726
C219  C     C_3   0.363836 0.402636 0.820371 0.064128
H103  H     H_    0.391052 0.427922 0.754162 0.173947
H104  H     H_    0.369885 0.434077 0.871263 0.131740
C220  C     C_3   0.304623 0.409766 0.839005 -0.325430
H105  H     H_    0.299130 0.377655 0.788314 0.252073
H106  H     H_    0.276337 0.388560 0.907130 0.214325
C221  C     C_3   0.289561 0.488732 0.834687 -0.979093
H107  H     H_    0.295611 0.522469 0.883680 0.255764
H108  H     H_    0.246044 0.492224 0.851686 0.279632
H109  H     H_    0.314965 0.510059 0.765534 0.263381
O60   O     O_3   0.623997 0.691523 0.181576 -0.647868
C222  C     C_3   0.599365 0.761051 0.209648 0.077262
H110  H     H_    0.564447 0.754924 0.278633 0.201548
H111  H     H_    0.582280 0.782390 0.166935 0.107343
C223  C     C_3   0.639272 0.816336 0.213597 -0.349876
H112  H     H_    0.655696 0.794808 0.256866 0.252604
H113  H     H_    0.673750 0.825508 0.144899 0.217296
C224  C     C_3   0.611517 0.889373 0.251561 -0.961082
H114  H     H_    0.595171 0.912490 0.208968 0.259452
H115  H     H_    0.641449 0.928190 0.253140 0.274458
H116  H     H_    0.577741 0.882392 0.321124 0.263580
O61   O     O_3   0.126779 0.834684 0.184447 -0.664122
C225  C     C_3   0.083789 0.886283 0.221440 0.095477
H117  H     H_    0.072466 0.892661 0.293563 0.202986
H118  H     H_    0.045867 0.866687 0.223333 0.126319
C226  C     C_3   0.101671 0.961436 0.177569 -0.382775
H119  H     H_    0.136939 0.980793 0.184883 0.236900
H120  H     H_    0.114643 0.958587 0.104643 0.243512
C227  C     C_3   0.055069 0.016287 0.222165 -0.823308
H121  H     H_    0.018974 0.997356 0.217135 0.249080
H122  H     H_    0.068059 0.069544 0.187994 0.279003
H123  H     H_    0.043499 0.023721 0.294247 0.269166
O62   O     O_3   0.880379 0.180838 0.814929 -0.638719
C228  C     C_3   0.906676 0.112369 0.782371 0.022633
H124  H     H_    0.893227 0.090350 0.735303 0.169635
H125  H     H_    0.896167 0.070237 0.835595 0.122253
C229  C     C_3   0.968600 0.121785 0.728963 -0.314501
H126  H     H_    0.978661 0.162600 0.675122 0.292343
H127  H     H_    0.984491 0.141459 0.773631 0.190855
C230  C     C_3   0.996961 0.049911 0.686435 -0.847486
H128  H     H_    0.988035 0.008612 0.739487 0.235857
H129  H     H_    0.041745 0.058491 0.648256 0.276909
H130  H     H_    0.983032 0.029212 0.639317 0.271617
O63   O     O_3   0.883210 0.823139 0.811374 -0.655194
C231  C     C_3   0.868615 0.897460 0.813664 0.085992
H131  H     H_    0.897169 0.921443 0.747297 0.184439
H132  H     H_    0.873571 0.929922 0.864977 0.124721
C232  C     C_3   0.810242 0.905168 0.828344 -0.338207
H133  H     H_    0.806142 0.873390 0.776070 0.254319
H134  H     H_    0.780652 0.883983 0.895737 0.215514
C233  C     C_3   0.795836 0.984300 0.823145 -0.976730
H135  H     H_    0.800270 0.017641 0.874034 0.253452
H136  H     H_    0.752892 0.988023 0.837026 0.281957
H137  H     H_    0.822664 0.005937 0.754652 0.264494
O64   O     O_3   0.122769 0.192316 0.182974 -0.657959
C234  C     C_3   0.098061 0.261592 0.212617 0.072623
H138  H     H_    0.062897 0.254337 0.281112 0.203022
H139  H     H_    0.081453 0.284356 0.169873 0.110340
C235  C     C_3   0.137580 0.315936 0.219351 -0.337325
H140  H     H_    0.153923 0.292607 0.261878 0.253977
H141  H     H_    0.172138 0.326744 0.151199 0.216187
C236  C     C_3   0.109424 0.388165 0.260543 -0.967071
H142  H     H_    0.093125 0.413110 0.218824 0.257213
H143  H     H_    0.139152 0.426298 0.263953 0.274539
H144  H     H_    0.075564 0.379547 0.329778 0.262287

loop_
_geom_bond_atom_site_label_1
_geom_bond_atom_site_label_2
_ccdc_geom_bond_type
C197  H52   S    
C234  H138  S    
C85   C182  S    
C111  O59   S    
C22   C94   A    
O61   C225  S    
C9    C169  A    
C34   C42   A    
O53   C201  S    
C181  C187  A    
C62   H2    S    
C228  H124  S    
O46   Zn10  S    
C27   C99   A    
C170  C178  A    
C12   C174  A    
C118  H18   S    
C42   C109  A    
C217  H99   S    
C24   C96   A    
C156  F1    S    
C235  H141  S    
C200  H60   S    
C197  H53   S    
C52   C108  A    
C236  H144  S    
C30   C38   A    
C1    O1    A    
C190  H36   S    
C220  C221  S    
O18   Zn2   S    
O7    Zn7   S    
C212  H88   S    
C125  H25   S    
O52   C198  S    
C147  C155  A    
C193  C194  S    
C121  C129  A    
C143  C151  A    
C90   C177  S    
C61   H1    S    
C82   C98   A    
O12   Zn7   S    
C76   C84   A    
C19   O55   S    
C73   C81   A    
C188  F12   S    
C162  C164  A    
O9    Zn6   S    
C199  H56   S    
C6    O30   A    
C120  H20   S    
C85   O9    A    
C133  O33   A    
C37   C114  A    
C27   C35   A    
C10   C171  A    
C200  H58   S    
C21   C29   A    
O48   Zn9   S    
C92   O16   A    
C81   C121  A    
C195  H47   S    
C23   C31   A    
C24   C32   A    
O3    Zn3   S    
O4    Zn4   S    
C206  H72   S    
C146  C154  A    
C205  H70   S    
C134  O34   A    
C227  H121  S    
C88   O12   A    
C63   C71   A    
O10   Zn5   S    
O57   C213  S    
C36   C44   A    
C191  H37   S    
C175  C183  A    
C228  C229  S    
C176  C184  A    
C140  O40   A    
C222  H111  S    
O5    Zn5   S    
O29   Zn2   S    
C137  O37   A    
C216  H96   S    
C148  C162  A    
C231  H131  S    
C115  O63   S    
C1    O25   A    
C183  C188  A    
O40   Zn9   S    
C127  H27   S    
C21   C93   A    
C78   C94   A    
C9    C165  A    
O54   C204  S    
C86   O18   A    
C23   C95   A    
C230  H129  S    
C49   C97   A    
C21   C42   A    
C40   C115  A    
C51   C107  A    
C7    O31   A    
O55   C207  S    
C24   C43   A    
C16   C145  A    
C113  O61   S    
C82   C122  A    
C161  C165  A    
C17   C175  A    
C214  H92   S    
C18   C176  A    
C196  H50   S    
O37   Zn9   S    
C204  H68   S    
C29   C125  A    
C69   C77   A    
C31   C127  A    
C45   C93   A    
C174  C182  A    
C71   C79   A    
O56   C210  S    
C8    O8    A    
C179  C186  A    
C226  H119  S    
C234  H139  S    
C62   C70   A    
C11   C176  A    
C7    O7    A    
C195  C196  S    
C103  C111  A    
C18   C143  A    
C78   C118  A    
O8    Zn8   S    
C149  C151  A    
C101  H9    S    
O43   Zn12  S    
C66   C74   A    
C205  C206  S    
C91   O15   A    
C8    C76   S    
C49   C57   A    
C124  C132  A    
C89   O13   A    
C130  H30   S    
C211  H84   S    
C52   C60   A    
C59   C67   A    
C15   O51   S    
C141  C159  A    
C227  H123  S    
C20   C174  A    
C5    O5    A    
C215  H93   S    
C192  H41   S    
C55   C63   A    
C86   C181  S    
C56   C64   A    
C233  H135  S    
O33   Zn11  S    
C191  H39   S    
C232  C233  S    
C139  O45   A    
C45   C53   A    
C20   O56   S    
C104  H12   S    
C171  C179  A    
C169  C177  A    
C207  H75   S    
C193  H43   S    
C223  H113  S    
C202  H64   S    
C216  C217  S    
C50   C98   A    
C87   O19   A    
O64   C234  S    
C231  C232  S    
C219  H103  S    
O28   Zn7   S    
O13   Zn2   S    
C198  H55   S    
O1    Zn1   S    
C145  C163  A    
C146  C164  A    
C14   C147  A    
C52   C100  A    
C79   C119  A    
O25   Zn6   S    
C132  H32   S    
C211  C212  S    
C178  C186  A    
C107  H15   S    
O49   C189  S    
C25   C38   A    
C223  C224  S    
C105  H13   S    
C54   C139  S    
C46   C94   A    
C27   C40   A    
C10   C166  A    
C210  C211  S    
C91   C180  S    
C233  H137  S    
C50   C58   A    
C182  C188  A    
C89   C178  S    
C209  H81   S    
C28   C36   A    
C221  H107  S    
C128  H28   S    
C25   C97   A    
C206  H73   S    
C39   C116  A    
C204  C205  S    
C201  H62   S    
C90   O22   A    
C208  C209  S    
C140  O46   A    
C67   C75   A    
C186  F10   S    
O23   Zn7   S    
C226  C227  S    
C133  O43   A    
C8    O32   A    
C3    O3    A    
C22   C30   A    
C20   C141  A    
C203  H66   S    
O31   Zn4   S    
C15   C146  A    
C233  H136  S    
O32   Zn3   S    
C58   C135  S    
C224  H116  S    
C201  C202  S    
O6    Zn6   S    
O47   Zn10  S    
C13   O49   S    
C184  C187  A    
O62   C228  S    
C83   C123  A    
C32   C128  A    
C194  H45   S    
C144  C152  A    
C17   O53   S    
C56   C137  S    
C235  C236  S    
C215  H95   S    
C227  H122  S    
C236  H143  S    
O11   Zn8   S    
C89   O21   A    
C220  H106  S    
C5    C73   S    
C212  H87   S    
C232  H133  S    
C13   C171  A    
C119  H19   S    
C203  H65   S    
C150  F7    S    
O24   Zn8   S    
O30   Zn1   S    
C66   H6    S    
C117  C125  A    
C207  C208  S    
C25   C33   A    
C119  C127  A    
C11   C167  A    
C213  H89   S    
O35   Zn12  S    
O36   Zn11  S    
C219  C220  S    
C157  C167  A    
C138  O38   A    
C158  C168  A    
C224  H114  S    
C199  H57   S    
C164  C165  A    
C117  H17   S    
C189  H33   S    
C22   C41   A    
C225  H117  S    
C101  C109  A    
C210  H82   S    
C88   O20   A    
C2    O2    A    
O44   Zn11  S    
C177  C185  A    
C229  H126  S    
C195  H48   S    
O21   Zn5   S    
C209  H79   S    
C129  H29   S    
C126  H26   S    
C161  C163  A    
C48   C96   A    
C162  C166  A    
O34   Zn12  S    
C199  C200  S    
C139  O39   A    
O38   Zn10  S    
C116  O64   S    
C208  H77   S    
C153  C155  A    
C154  C156  A    
C172  C180  A    
C228  H125  S    
C197  H51   S    
C173  C181  A    
O51   C195  S    
C157  C159  A    
C83   C99   A    
C153  F4    S    
C158  C160  A    
C154  F3    S    
C3    O27   A    
C74   C82   A    
C191  H38   S    
C6    C74   S    
C65   H5    S    
C200  H59   S    
C47   C103  A    
C136  O42   A    
O63   C231  S    
C86   O10   A    
C5    O29   A    
C163  C166  A    
C217  H98   S    
C189  C190  S    
C147  C161  A    
C38   C113  A    
C235  H140  S    
C49   C105  A    
C124  H24   S    
C213  C214  S    
O15   Zn4   S    
C64   H4    S    
O45   Zn9   S    
O16   Zn3   S    
C1    C69   S    
C23   C44   A    
C84   C100  A    
C3    C71   S    
C19   C173  A    
C79   C95   A    
C92   C179  S    
C216  H97   S    
C110  O58   S    
O41   Zn11  S    
C203  H67   S    
O42   Zn12  S    
C46   C54   A    
C185  F9    S    
C68   H8    S    
C45   C101  A    
C19   C142  A    
C17   C144  A    
O60   C222  S    
C149  F8    S    
C102  C110  A    
C68   C76   A    
C35   C131  A    
C4    C72   S    
O14   Zn1   S    
C214  H91   S    
C33   C129  A    
C134  O44   A    
C59   C134  S    
C123  C131  A    
C152  F5    S    
O26   Zn5   S    
C57   C65   A    
O58   C216  S    
C120  C128  A    
C26   C37   A    
C10   C170  A    
C54   C62   A    
C77   C117  A    
C28   C39   A    
C229  C230  S    
C33   C41   A    
C108  C116  A    
C36   C132  A    
C2    O26   A    
C198  H54   S    
C75   C83   A    
C138  O48   A    
C63   H3    S    
C6    O6    A    
C77   C93   A    
C109  O57   S    
C85   O17   A    
C211  H85   S    
C187  F11   S    
C196  H49   S    
C44   C111  A    
C16   C170  A    
C16   O52   S    
C60   C68   A    
C72   C80   A    
C192  H40   S    
C29   C37   A    
C50   C106  A    
C9    C172  A    
O17   Zn1   S    
C148  C156  A    
C135  O35   A    
O27   Zn8   S    
C2    C70   S    
C60   C133  S    
C218  H100  S    
C231  H132  S    
C232  H134  S    
C218  H102  S    
C194  H44   S    
C30   C126  A    
C70   C78   A    
C53   C140  S    
C137  O47   A    
C190  H35   S    
O59   C219  S    
C217  C218  S    
C142  C150  A    
C207  H76   S    
C141  C149  A    
C218  H101  S    
C202  H63   S    
C46   C102  A    
C15   C169  A    
C55   C138  S    
C81   C97   A    
C106  C114  A    
C219  H104  S    
C114  O62   S    
C102  H10   S    
C205  H71   S    
C48   C104  A    
C65   C73   A    
C159  C168  A    
C90   O14   A    
C131  H31   S    
C160  C167  A    
C4    O28   A    
C230  H130  S    
C104  C112  A    
C58   C66   A    
C31   C39   A    
C210  H83   S    
C123  H23   S    
C105  C113  A    
C220  H105  S    
C57   C136  S    
C121  H21   S    
C80   C96   A    
C221  H108  S    
C214  C215  S    
C18   O54   S    
C28   C100  A    
C32   C40   A    
C196  C197  S    
C224  H115  S    
C208  H78   S    
C53   C61   A    
C67   H7    S    
C26   C34   A    
C143  C157  A    
C215  H94   S    
C226  H120  S    
C51   C99   A    
C234  C235  S    
C11   C173  A    
O22   Zn6   S    
C221  H109  S    
C14   C172  A    
C87   C184  S    
C88   C183  S    
C7    C75   S    
C4    O4    A    
C106  H14   S    
C222  H110  S    
C192  C193  S    
C122  H22   S    
C236  H142  S    
C222  C223  S    
C103  H11   S    
C107  C115  A    
C212  H86   S    
C112  O60   S    
C26   C98   A    
C12   C175  A    
O50   C192  S    
C91   O23   A    
C135  O41   A    
C41   C110  A    
C190  C191  S    
C150  C152  A    
C80   C120  A    
C51   C59   A    
C43   C112  A    
C144  C158  A    
C151  F6    S    
C35   C43   A    
C193  H42   S    
C47   C55   A    
C223  H112  S    
C202  C203  S    
C61   C69   A    
C48   C56   A    
C213  H90   S    
C136  O36   A    
C142  C160  A    
C12   C168  A    
C198  C199  S    
C84   C124  A    
O19   Zn3   S    
O20   Zn4   S    
C155  F2    S    
C145  C153  A    
C230  H128  S    
C108  H16   S    
C189  H34   S    
C92   O24   A    
C225  H118  S    
C87   O11   A    
C229  H127  S    
C64   C72   A    
C209  H80   S    
C180  C185  A    
O2    Zn2   S    
C206  H74   S    
C34   C130  A    
C204  H69   S    
C201  H61   S    
C194  H46   S    
C47   C95   A    
O39   Zn10  S    
C14   O50   S    
C118  C126  A    
C13   C148  A    
C122  C130  A    
C225  C226  S    
