data_str_m2_o40_o41_f0_fof.sym.20
_audit_creation_date              2013-03-05T15:40:54-0500
_audit_creation_method            fapswitch 2.2
_symmetry_space_group_name_H-M    P1
_symmetry_Int_Tables_number       1
_space_group_crystal_system       triclinic
_cell_length_a                    27.905027
_cell_length_b                    18.809464
_cell_length_c                    16.769369
_cell_angle_alpha                 90.004501
_cell_angle_beta                  62.750849
_cell_angle_gamma                 90.05964
_cell_volume                      7825.07950177

loop_
_atom_site_label
_atom_site_type_symbol
_atom_site_description
_atom_site_fract_x
_atom_site_fract_y
_atom_site_fract_z
_atom_type_partial_charge
O1    O     O_R   0.255040 0.869590 0.478480 -0.534159
O2    O     O_R   0.744960 0.130410 0.521520 -0.530279
O3    O     O_R   0.744960 0.869590 0.521520 -0.547123
O4    O     O_R   0.255040 0.130410 0.478480 -0.540964
O5    O     O_R   0.755040 0.369590 0.478480 -0.534804
O6    O     O_R   0.244960 0.630410 0.521520 -0.531251
O7    O     O_R   0.244960 0.369590 0.521520 -0.536125
O8    O     O_R   0.755040 0.630410 0.478480 -0.528644
O9    O     O_R   0.182050 0.796550 0.624440 -0.578628
O10   O     O_R   0.817950 0.203450 0.375560 -0.568442
O11   O     O_R   0.817950 0.796550 0.375560 -0.569661
O12   O     O_R   0.182050 0.203450 0.624440 -0.583290
O13   O     O_R   0.682050 0.296550 0.624440 -0.561755
O14   O     O_R   0.317950 0.703450 0.375560 -0.572088
O15   O     O_R   0.317950 0.296550 0.375560 -0.571463
O16   O     O_R   0.682050 0.703450 0.624440 -0.562860
Cu1   Cu    Cu3+1 0.209920 0.785290 0.495070 1.070455
Cu2   Cu    Cu3+1 0.790080 0.214710 0.504930 1.048455
Cu3   Cu    Cu3+1 0.790080 0.785290 0.504930 1.040207
Cu4   Cu    Cu3+1 0.209920 0.214710 0.495070 1.066015
Cu5   Cu    Cu3+1 0.709920 0.285290 0.495070 1.096093
Cu6   Cu    Cu3+1 0.290080 0.714710 0.504930 1.110387
Cu7   Cu    Cu3+1 0.290080 0.285290 0.504930 1.083760
Cu8   Cu    Cu3+1 0.709920 0.714710 0.495070 1.101121
C1    C     C_R   0.296238 0.731150 0.328233 0.834016
C2    C     C_R   0.703009 0.267491 0.671992 0.759617
C3    C     C_R   0.707937 0.722549 0.668769 0.777588
C4    C     C_R   0.291965 0.277851 0.331452 0.833950
C5    C     C_R   0.790515 0.220291 0.332484 0.768941
C6    C     C_R   0.203064 0.767279 0.672193 0.749680
C7    C     C_R   0.203685 0.231301 0.671703 0.804607
C8    C     C_R   0.796358 0.768385 0.328380 0.748796
O17   O     O_R   0.250530 0.763330 0.367210 -0.564415
O18   O     O_R   0.749470 0.236670 0.632790 -0.576736
O19   O     O_R   0.749470 0.763330 0.632790 -0.586454
O20   O     O_R   0.250530 0.236670 0.367210 -0.587050
O21   O     O_R   0.750530 0.263330 0.367210 -0.581915
O22   O     O_R   0.249470 0.736670 0.632790 -0.571369
O23   O     O_R   0.249470 0.263330 0.632790 -0.583884
O24   O     O_R   0.750530 0.736670 0.367210 -0.577554
O25   O     O_R   0.177260 0.690030 0.513710 -0.565894
O26   O     O_R   0.822740 0.309970 0.486290 -0.596045
O27   O     O_R   0.822740 0.690030 0.486290 -0.597313
O28   O     O_R   0.177260 0.309970 0.513710 -0.581406
O29   O     O_R   0.677260 0.190030 0.513710 -0.562117
O30   O     O_R   0.322740 0.809970 0.486290 -0.572960
O31   O     O_R   0.322740 0.190030 0.486290 -0.566499
O32   O     O_R   0.677260 0.809970 0.513710 -0.558921
C9    C     C_R   0.196290 0.631808 0.528336 0.765264
C10   C     C_R   0.804068 0.367963 0.469837 0.793225
C11   C     C_R   0.804080 0.631925 0.469760 0.743290
C12   C     C_R   0.195920 0.367983 0.529791 0.866063
C13   C     C_R   0.695876 0.132166 0.530446 0.730976
C14   C     C_R   0.304092 0.867819 0.469681 0.816478
C15   C     C_R   0.300499 0.130752 0.482219 0.772592
C16   C     C_R   0.699722 0.869202 0.516836 0.779380
C17   C     C_R   0.046635 0.629280 0.509412 0.060350
C18   C     C_R   0.961216 0.370065 0.464469 0.055151
C19   C     C_R   0.963276 0.629067 0.458623 0.079651
C20   C     C_R   0.043551 0.370093 0.518070 0.042535
C21   C     C_R   0.527924 0.121216 0.569740 0.080268
C22   C     C_R   0.472465 0.878632 0.428657 0.059444
C23   C     C_R   0.429242 0.117276 0.559533 0.058343
C24   C     C_R   0.571256 0.882685 0.438504 0.058302
C25   C     C_R   0.027808 0.694741 0.492142 -0.073096
C26   C     C_R   0.982684 0.304588 0.475767 -0.069723
C27   C     C_R   0.987142 0.694419 0.464042 -0.031916
C28   C     C_R   0.022216 0.304448 0.506504 -0.085546
C29   C     C_R   0.491988 0.179912 0.600831 -0.066998
C30   C     C_R   0.508517 0.820054 0.397210 -0.069703
C31   C     C_R   0.442471 0.177672 0.596521 -0.070941
C32   C     C_R   0.558054 0.822338 0.401439 -0.079843
C33   C     C_R   0.982647 0.564492 0.475263 0.001499
C34   C     C_R   0.024502 0.434716 0.500821 0.008923
C35   C     C_R   0.025922 0.564493 0.496749 0.002695
C36   C     C_R   0.981459 0.434741 0.478668 0.009678
C37   C     C_R   0.465308 0.059303 0.527735 0.005539
C38   C     C_R   0.535242 0.940733 0.470131 0.007876
C39   C     C_R   0.514239 0.060931 0.533717 0.003783
C40   C     C_R   0.486274 0.939067 0.464268 0.004683
C41   C     C_R   0.451473 0.998589 0.492500 -0.011193
C42   C     C_R   0.549054 0.001433 0.505425 -0.013175
C43   C     C_R   0.959187 0.499659 0.468935 -0.013263
C44   C     C_R   0.047003 0.499650 0.509645 -0.011652
C45   C     C_R   0.387129 0.936047 0.455121 0.009073
C46   C     C_R   0.613161 0.063755 0.543614 0.011170
C47   C     C_R   0.630498 0.941312 0.491175 0.012110
C48   C     C_R   0.369877 0.058562 0.507054 0.008235
C49   C     C_R   0.888666 0.434833 0.450695 0.018708
C50   C     C_R   0.114286 0.564725 0.536806 0.019592
C51   C     C_R   0.113381 0.435001 0.539687 0.037268
C52   C     C_R   0.888824 0.564709 0.450086 0.005638
C53   C     C_R   0.336208 0.934680 0.454630 -0.174513
C54   C     C_R   0.664082 0.065152 0.544140 -0.198888
C55   C     C_R   0.672514 0.937426 0.517376 -0.165945
C56   C     C_R   0.327797 0.062438 0.480839 -0.165221
C57   C     C_R   0.837521 0.434478 0.450203 -0.182416
C58   C     C_R   0.163511 0.565194 0.543930 -0.176131
C59   C     C_R   0.163002 0.434600 0.545656 -0.118723
C60   C     C_R   0.837423 0.565209 0.450295 -0.174692
C61   C     C_R   0.312621 0.999704 0.451411 -0.081145
C62   C     C_R   0.687928 0.000070 0.546101 -0.115224
C63   C     C_R   0.815352 0.499762 0.441040 -0.110775
C64   C     C_R   0.184915 0.499951 0.554818 -0.108175
C65   C     C_R   0.403032 0.997841 0.484375 0.071610
C66   C     C_R   0.597417 0.002108 0.513759 0.065362
C67   C     C_R   0.912025 0.499749 0.456684 0.077250
C68   C     C_R   0.091994 0.499758 0.527966 0.079959
C69   C     C_R   0.619879 0.886188 0.444735 -0.170482
C70   C     C_R   0.380507 0.113606 0.553660 -0.166415
C71   C     C_R   0.423241 0.878649 0.423768 -0.160091
C72   C     C_R   0.576918 0.120965 0.575371 -0.120061
C73   C     C_R   0.083311 0.372746 0.547311 -0.191414
C74   C     C_R   0.919310 0.627043 0.439440 -0.154139
C75   C     C_R   0.918569 0.372265 0.442060 -0.192446
C76   C     C_R   0.085366 0.627218 0.540543 -0.153647
H1    H     H_    0.650550 0.846969 0.410421 0.192563
H2    H     H_    0.349738 0.152554 0.588600 0.190648
H3    H     H_    0.414287 0.835896 0.389856 0.191844
H4    H     H_    0.585711 0.163555 0.609699 0.179546
H5    H     H_    0.088722 0.326558 0.580036 0.200863
H6    H     H_    0.910339 0.674070 0.412913 0.211384
H7    H     H_    0.910238 0.325157 0.414751 0.216330
H8    H     H_    0.089834 0.674207 0.573018 0.187810
C77   C     C_R   0.208458 0.744990 0.965099 0.025413
C78   C     C_R   0.755838 0.189683 0.065960 0.028446
C79   C     C_R   0.777105 0.767576 0.049593 0.032809
C80   C     C_R   0.209752 0.253094 0.962680 0.023151
C81   C     C_R   0.698599 0.230034 0.970680 0.026822
C82   C     C_R   0.269077 0.713651 0.057416 0.029851
C83   C     C_R   0.270132 0.286438 0.054330 0.022765
C84   C     C_R   0.721284 0.727403 0.953844 0.031957
C85   C     C_R   0.248368 0.691821 0.931697 -0.002807
C86   C     C_R   0.706349 0.226160 0.110919 -0.002934
C87   C     C_R   0.732472 0.721729 0.089239 -0.019274
C88   C     C_R   0.259977 0.287916 0.917365 0.031539
C89   C     C_R   0.742365 0.182640 0.931312 -0.001121
C90   C     C_R   0.229963 0.767706 0.089115 0.042089
C91   C     C_R   0.215938 0.263552 0.103015 0.035968
C92   C     C_R   0.770562 0.763701 0.910365 -0.006681
C93   C     C_R   0.275754 0.672061 0.982300 0.061284
C94   C     C_R   0.678632 0.248988 0.062147 0.059371
C95   C     C_R   0.699903 0.711155 0.045926 0.061027
C96   C     C_R   0.292773 0.296775 0.960707 0.064444
C97   C     C_R   0.772384 0.164634 0.977693 0.069170
C98   C     C_R   0.195791 0.777237 0.048560 0.057666
C99   C     C_R   0.187465 0.240463 0.055855 0.055483
C100  C     C_R   0.792982 0.793642 0.962373 0.062675
C101  C     C_R   0.136229 0.813141 0.955495 0.064895
C102  C     C_R   0.836287 0.136707 0.067649 0.077406
C103  C     C_R   0.845100 0.842014 0.062273 0.073961
C104  C     C_R   0.134293 0.190443 0.955988 0.065417
C105  C     C_R   0.629929 0.304495 0.958068 0.068637
C106  C     C_R   0.338526 0.644078 0.072818 0.064131
C107  C     C_R   0.354990 0.325582 0.052253 0.070162
C108  C     C_R   0.641469 0.677937 0.950131 0.072232
C109  C     C_R   0.113469 0.842979 0.901958 -0.124504
C110  C     C_R   0.870747 0.130060 0.109979 -0.117559
C111  C     C_R   0.876338 0.858759 0.107382 -0.122607
C112  C     C_R   0.112790 0.157947 0.902011 -0.124685
C113  C     C_R   0.611429 0.340684 0.902406 -0.125908
C114  C     C_R   0.374226 0.636070 0.111189 -0.117192
C115  C     C_R   0.382806 0.348582 0.101176 -0.123750
C116  C     C_R   0.616255 0.651877 0.898918 -0.129328
C117  C     C_R   0.134895 0.823543 0.811495 -0.250557
C118  C     C_R   0.854783 0.159938 0.194436 -0.252636
C119  C     C_R   0.861989 0.829044 0.191661 -0.242894
C120  C     C_R   0.135188 0.175354 0.810823 -0.275511
C121  C     C_R   0.635138 0.324820 0.810652 -0.247217
C122  C     C_R   0.362335 0.670239 0.191981 -0.264516
C123  C     C_R   0.361952 0.330222 0.191465 -0.262739
C124  C     C_R   0.638674 0.668119 0.807668 -0.245074
H9    H     H_    0.120092 0.849807 0.769638 0.193337
H10   H     H_    0.881783 0.157370 0.224598 0.198104
H11   H     H_    0.882637 0.846475 0.229414 0.203214
H12   H     H_    0.120135 0.149134 0.769247 0.195949
H13   H     H_    0.623080 0.354929 0.767754 0.199833
H14   H     H_    0.385358 0.657486 0.227443 0.198702
H15   H     H_    0.385420 0.340802 0.226787 0.194133
H16   H     H_    0.617166 0.653442 0.770275 0.197948
C125  C     C_R   0.176576 0.773696 0.772523 -0.130484
C126  C     C_R   0.804187 0.190949 0.242194 -0.124425
C127  C     C_R   0.819928 0.779867 0.230162 -0.133271
C128  C     C_R   0.177998 0.223483 0.771057 -0.080025
C129  C     C_R   0.675419 0.273157 0.772115 -0.134381
C130  C     C_R   0.319464 0.717890 0.230022 -0.075787
C131  C     C_R   0.310125 0.302166 0.238139 -0.084555
C132  C     C_R   0.689341 0.700051 0.762878 -0.133565
C133  C     C_R   0.195986 0.738784 0.828535 -0.031629
C134  C     C_R   0.768242 0.193850 0.202343 -0.042533
C135  C     C_R   0.795698 0.752182 0.177733 -0.047048
C136  C     C_R   0.199663 0.255577 0.824967 0.053263
C137  C     C_R   0.691979 0.234399 0.828842 -0.034616
C138  C     C_R   0.294341 0.741719 0.177134 0.052546
C139  C     C_R   0.276733 0.298184 0.194540 0.048653
C140  C     C_R   0.720215 0.711648 0.809953 -0.044508
C141  C     C_R   0.180513 0.766068 0.915807 0.074429
C142  C     C_R   0.787612 0.175247 0.111161 0.070901
C143  C     C_R   0.806112 0.787208 0.096701 0.067903
C144  C     C_R   0.181443 0.232302 0.914229 0.045175
C145  C     C_R   0.673802 0.256912 0.918837 0.074472
C146  C     C_R   0.300729 0.699998 0.102358 0.041484
C147  C     C_R   0.300975 0.302086 0.100159 0.046013
C148  C     C_R   0.693956 0.706452 0.904645 0.072471
C149  C     C_R   0.116216 0.827074 0.048250 -0.172894
C150  C     C_R   0.846579 0.103710 0.985547 -0.195575
C151  C     C_R   0.850528 0.878152 0.984330 -0.180658
C152  C     C_R   0.110376 0.184136 0.050319 -0.169559
C153  C     C_R   0.605754 0.312573 0.052092 -0.185275
C154  C     C_R   0.338172 0.596850 0.007964 -0.161560
C155  C     C_R   0.378496 0.326555 0.957788 -0.184105
C156  C     C_R   0.616920 0.675179 0.044999 -0.172039
C157  C     C_R   0.147197 0.814199 0.091770 -0.200749
C158  C     C_R   0.817652 0.120327 0.939849 -0.221111
C159  C     C_R   0.828626 0.850768 0.931570 -0.224909
C160  C     C_R   0.136670 0.207407 0.098829 -0.195438
C161  C     C_R   0.630670 0.288528 0.102028 -0.199130
C162  C     C_R   0.308612 0.611316 0.962214 -0.197001
C163  C     C_R   0.347660 0.314624 0.913163 -0.221164
C164  C     C_R   0.646737 0.686729 0.091356 -0.221256
C165  C     C_R   0.229703 0.677627 0.802910 0.002384
C166  C     C_R   0.712391 0.208832 0.250447 -0.019438
C167  C     C_R   0.760724 0.691910 0.202627 0.012154
C168  C     C_R   0.238227 0.311445 0.795174 0.023019
C169  C     C_R   0.724818 0.172814 0.801534 -0.003899
C170  C     C_R   0.262907 0.804576 0.195430 0.026454
C171  C     C_R   0.219768 0.294608 0.241059 0.001092
C172  C     C_R   0.776389 0.727193 0.767523 -0.001851
C173  C     C_R   0.257661 0.658180 0.851028 -0.188754
C174  C     C_R   0.684212 0.232467 0.204641 -0.186268
C175  C     C_R   0.725089 0.683159 0.165430 -0.199610
C176  C     C_R   0.272636 0.319790 0.834334 -0.309100
C177  C     C_R   0.752206 0.151190 0.849266 -0.202987
C178  C     C_R   0.228561 0.813999 0.156179 -0.276963
C179  C     C_R   0.190860 0.270612 0.196895 -0.275512
C180  C     C_R   0.798584 0.762186 0.816568 -0.193776
H17   H     H_    0.076220 0.846101 0.090770 0.192838
H18   H     H_    0.875190 0.062095 0.953972 0.176951
H19   H     H_    0.869906 0.928878 0.962838 0.169428
H20   H     H_    0.070177 0.163974 0.089665 0.186159
H21   H     H_    0.566569 0.335735 0.090489 0.180114
H22   H     H_    0.359189 0.546644 0.993340 0.174783
H23   H     H_    0.421174 0.334731 0.916595 0.169490
H24   H     H_    0.574460 0.665025 0.085323 0.171787
H25   H     H_    0.131052 0.829772 0.161434 0.164445
H26   H     H_    0.832224 0.096777 0.874338 0.141214
H27   H     H_    0.836571 0.877807 0.869682 0.149764
H28   H     H_    0.116853 0.196977 0.170044 0.162301
H29   H     H_    0.611294 0.302644 0.172066 0.153097
H30   H     H_    0.310998 0.572333 0.913436 0.142784
H31   H     H_    0.367817 0.317133 0.840699 0.136212
H32   H     H_    0.626937 0.680188 0.163435 0.136086
H33   H     H_    0.285813 0.614870 0.824821 0.181035
H34   H     H_    0.642502 0.246691 0.244448 0.182225
H35   H     H_    0.696047 0.640154 0.188861 0.192039
H36   H     H_    0.304571 0.358983 0.806498 0.147237
H37   H     H_    0.777711 0.105180 0.824633 0.178007
H38   H     H_    0.204189 0.861685 0.172582 0.138210
H39   H     H_    0.147555 0.266674 0.235484 0.147393
H40   H     H_    0.840336 0.779098 0.782998 0.180246
O33   O     O_R   0.051640 0.926880 0.885090 -0.576827
O34   O     O_R   0.948360 0.073120 0.114910 -0.577732
O35   O     O_R   0.948360 0.926880 0.114910 -0.578392
O36   O     O_R   0.051640 0.073120 0.885090 -0.575200
O37   O     O_R   0.551640 0.426880 0.885090 -0.579559
O38   O     O_R   0.448360 0.573120 0.114910 -0.580991
O39   O     O_R   0.448360 0.426880 0.114910 -0.580235
O40   O     O_R   0.551640 0.573120 0.885090 -0.571247
Cu9   Cu    Cu3+1 0.495240 0.500000 0.924150 0.970145
Cu10  Cu    Cu3+1 0.504760 0.500000 0.075850 0.973018
Cu11  Cu    Cu3+1 0.995240 0.000000 0.924150 0.941894
Cu12  Cu    Cu3+1 0.004760 0.000000 0.075850 0.976688
C181  C     C_R   0.923675 0.906769 0.068625 0.797070
C182  C     C_R   0.071754 0.100004 0.935448 0.820008
C183  C     C_R   0.072298 0.900673 0.935016 0.817824
C184  C     C_R   0.922723 0.091263 0.069005 0.800658
C185  C     C_R   0.427803 0.400608 0.064832 0.788990
C186  C     C_R   0.572013 0.599306 0.935127 0.818371
C187  C     C_R   0.571659 0.399989 0.935383 0.799047
C188  C     C_R   0.422947 0.591409 0.069671 0.814022
O41   O     O_R   0.940620 0.926560 0.986760 -0.608922
O42   O     O_R   0.059380 0.073440 0.013240 -0.592761
O43   O     O_R   0.059380 0.926560 0.013240 -0.594829
O44   O     O_R   0.940620 0.073440 0.986760 -0.610860
O45   O     O_R   0.440620 0.426560 0.986760 -0.606783
O46   O     O_R   0.559380 0.573440 0.013240 -0.590552
O47   O     O_R   0.559380 0.426560 0.013240 -0.593285
O48   O     O_R   0.440620 0.573440 0.986760 -0.592784
C189  C     C_2   0.593884 0.758860 0.372002 0.357268
H41   H     H_    0.604840 0.735135 0.307081 0.039722
O49   O     O_2   0.609437 0.730914 0.421703 -0.500193
C190  C     C_2   0.406702 0.241232 0.625789 0.342002
H42   H     H_    0.396050 0.265383 0.690406 0.036643
O50   O     O_2   0.390858 0.268798 0.576256 -0.519239
C191  C     C_2   0.494170 0.754226 0.363523 0.346120
H43   H     H_    0.522812 0.730721 0.300570 0.043034
O51   O     O_2   0.451274 0.724075 0.407890 -0.513089
C192  C     C_2   0.506522 0.245851 0.634041 0.350347
H44   H     H_    0.477904 0.269800 0.696684 0.032895
O52   O     O_2   0.549604 0.275567 0.589611 -0.489723
C193  C     C_2   0.042632 0.234844 0.520986 0.311223
H45   H     H_    0.014585 0.192199 0.555631 0.067800
O53   O     O_2   0.090832 0.223428 0.491128 -0.548442
C194  C     C_2   0.969981 0.763045 0.441155 0.367364
H46   H     H_    0.956477 0.806238 0.489327 0.077841
O54   O     O_2   0.973019 0.772604 0.366964 -0.554244
C195  C     C_2   0.963753 0.235576 0.457092 0.342053
H47   H     H_    0.947430 0.195155 0.508855 0.063533
O55   O     O_2   0.968436 0.222483 0.382549 -0.544244
C196  C     C_2   0.053206 0.763683 0.495663 0.321665
H48   H     H_    0.028480 0.810376 0.524265 0.056440
O56   O     O_2   0.102121 0.769600 0.463090 -0.517966
C197  C     C_2   0.277361 0.001812 0.406765 0.460983
H49   H     H_    0.295432 0.002946 0.334150 0.069174
O57   O     O_2   0.228319 0.001421 0.450720 -0.504257
C198  C     C_2   0.723781 0.996890 0.589094 0.509850
H50   H     H_    0.706246 0.988828 0.660969 0.047741
O58   O     O_2   0.772706 0.000277 0.544167 -0.460174
C199  C     C_2   0.774101 0.499074 0.408486 0.484013
H51   H     H_    0.786871 0.493543 0.337253 0.062466
O59   O     O_2   0.726074 0.501899 0.460890 -0.460486
C200  C     C_2   0.225948 0.499981 0.587426 0.487672
H52   H     H_    0.212675 0.499758 0.658821 0.098914
O60   O     O_2   0.274071 0.500010 0.535170 -0.463554
C201  C     C_2   0.229533 0.625483 0.736975 0.432972
H53   H     H_    0.196215 0.624189 0.720437 0.001253
O61   O     O_2   0.266882 0.583911 0.699990 -0.549609
C202  C     C_2   0.679920 0.179651 0.341295 0.464673
H54   H     H_    0.696708 0.137638 0.365002 0.035727
O62   O     O_2   0.633946 0.200065 0.388753 -0.509835
C203  C     C_2   0.767301 0.631428 0.253763 0.453850
H55   H     H_    0.802377 0.628739 0.265617 0.006059
O63   O     O_2   0.733912 0.583755 0.282533 -0.533877
C204  C     C_2   0.234510 0.371969 0.741866 0.414619
H56   H     H_    0.267917 0.408876 0.710052 0.098413
O64   O     O_2   0.192964 0.382727 0.736406 -0.607941
C205  C     C_2   0.724416 0.122808 0.733861 0.426028
H57   H     H_    0.691323 0.123263 0.716750 -0.001270
O65   O     O_2   0.761545 0.081147 0.695941 -0.538567
C206  C     C_2   0.270798 0.866831 0.242612 0.394164
H58   H     H_    0.239863 0.907446 0.270325 0.077281
O66   O     O_2   0.312820 0.875070 0.247404 -0.597589
C207  C     C_2   0.188618 0.332826 0.326257 0.417768
H59   H     H_    0.147259 0.317859 0.369907 0.121808
O67   O     O_2   0.207671 0.384965 0.344766 -0.566565
C208  C     C_2   0.814007 0.693336 0.681357 0.444531
H60   H     H_    0.799904 0.650520 0.654063 0.054644
O68   O     O_2   0.861103 0.711877 0.640891 -0.582790

loop_
_geom_bond_atom_site_label_1
_geom_bond_atom_site_label_2
_geom_bond_distance
_ccdc_geom_bond_type
C200  O60   1.222132 D    
C28   C193  1.491933 S    
C140  C172  1.423606 A    
C159  H27   1.083519 S    
Cu2   Cu5   2.671754 S    
C182  O42   1.287597 A    
C116  C186  1.477073 S    
C70   H2    1.076007 S    
C205  H57   1.085283 S    
C193  H45   1.084383 S    
C110  C118  1.393847 A    
C122  H14   1.083564 S    
C77   C98   1.413859 A    
C2    C129  1.496521 S    
C139  C147  1.409770 A    
Cu11  Cu12  2.675991 S    
Cu6   O22   1.956515 S    
C137  C145  1.418993 A    
C22   C30   1.421476 A    
C82   C93   1.420774 A    
Cu9   O48   1.967833 S    
C95   C164  1.398630 A    
C62   C198  1.478157 S    
O3    Cu3   1.964750 S    
C50   C76   1.411577 A    
C140  C148  1.415056 A    
C102  C110  1.438577 A    
C19   C33   1.408863 A    
Cu5   O29   1.968409 S    
C82   C146  1.422702 A    
C55   C62   1.412100 A    
O15   Cu7   1.952162 S    
C150  C158  1.379701 A    
C162  H30   1.077647 S    
Cu10  O46   1.965722 S    
C36   C43   1.413652 A    
O25   C9    1.289174 A    
C17   C76   1.399594 A    
C105  C145  1.413284 A    
C37   C39   1.414481 A    
Cu12  O42   1.965722 S    
C196  O56   1.221005 D    
C118  H10   1.083920 S    
C75   H7    1.070470 S    
C111  C181  1.481279 S    
C206  H58   1.085702 S    
C154  H22   1.079486 S    
C4    C131  1.479206 S    
C53   C61   1.402238 A    
C72   H4    1.078062 S    
C81   C94   1.417017 A    
C156  C164  1.391294 A    
C3    O19   1.285911 A    
O36   C182  1.310445 A    
C105  C113  1.429403 A    
C198  H50   1.083963 S    
C93   C162  1.406751 A    
C38   C42   1.417841 A    
O12   Cu4   1.952162 S    
O13   Cu5   1.952300 S    
C150  H18   1.069884 S    
C57   C63   1.415210 A    
C23   C31   1.421350 A    
O36   Cu11  1.961948 S    
C29   C192  1.489488 S    
C164  H32   1.081549 S    
C91   C179  1.406103 A    
C192  H44   1.084729 S    
C153  H21   1.075290 S    
C82   C90   1.406611 A    
C135  C167  1.427112 A    
C8    O24   1.284994 A    
C133  C141  1.418914 A    
C178  H38   1.082888 S    
C206  O66   1.221231 D    
O2    C13   1.308407 A    
C80   C99   1.412273 A    
C160  H28   1.079603 S    
C115  C185  1.484077 S    
C139  C171  1.415686 A    
C153  C161  1.386762 A    
C190  O50   1.221103 D    
C169  C177  1.396823 A    
C106  C154  1.407732 A    
Cu3   O19   1.956088 S    
O10   Cu2   1.952300 S    
C111  C119  1.397003 A    
C112  C120  1.400225 A    
C137  C169  1.417440 A    
C97   C158  1.400352 A    
O4    Cu4   1.964752 S    
C81   C89   1.409231 A    
C78   C86   1.412367 A    
C126  C134  1.438608 A    
C103  C151  1.418451 A    
C33   C43   1.410262 A    
C103  C111  1.426361 A    
O6    Cu6   1.962669 S    
C16   C55   1.489635 S    
C49   C75   1.411964 A    
C118  C126  1.393279 A    
O1    C14   1.308306 A    
O27   C11   1.293593 A    
O15   C4    1.298901 A    
C18   C36   1.406202 A    
C191  O51   1.221130 D    
C6    O22   1.289557 A    
C169  C205  1.477887 S    
C22   C40   1.416700 A    
O7    C12   1.311090 A    
Cu2   O26   1.968409 S    
O39   Cu10  1.961947 S    
C38   C40   1.414460 A    
C35   C44   1.413663 A    
C197  O57   1.221671 D    
C104  C152  1.412420 A    
C71   H3    1.078019 S    
C201  O61   1.221479 D    
C64   C200  1.477642 S    
C19   C27   1.420034 A    
C45   C53   1.424942 A    
C22   C71   1.413019 A    
C47   C55   1.430020 A    
C183  O43   1.286472 A    
C113  C121  1.400852 A    
C78   C142  1.431940 A    
O16   C3    1.301777 A    
C136  C144  1.411912 A    
O29   C13   1.291489 A    
C123  H15   1.083631 S    
C46   C66   1.410133 A    
C161  H29   1.077507 S    
C107  C147  1.415069 A    
C121  H13   1.083316 S    
Cu4   O28   1.970091 S    
C78   C97   1.414431 A    
C166  C202  1.475891 S    
C41   C65   1.419388 A    
C180  H40   1.083595 S    
Cu7   O31   1.970091 S    
C5    C126  1.487957 S    
Cu8   O32   1.970091 S    
C102  C150  1.414708 A    
C109  C117  1.400800 A    
C204  H56   1.085756 S    
C184  O44   1.278098 A    
O35   C181  1.307305 A    
C185  O45   1.284994 A    
C187  O47   1.289343 A    
Cu2   O18   1.956515 S    
C208  O68   1.221339 D    
Cu4   Cu7   2.669426 S    
C189  H41   1.083172 S    
O5    Cu5   1.962671 S    
C30   C191  1.489459 S    
C157  H25   1.082495 S    
C20   C28   1.421555 A    
O9    C6    1.311100 A    
O26   C10   1.292413 A    
O11   C8    1.305932 A    
C207  O67   1.220977 D    
O12   C7    1.305585 A    
C49   C67   1.408622 A    
O13   C2    1.305577 A    
C116  C124  1.396173 A    
C112  C182  1.490999 S    
C31   C190  1.490045 S    
C165  C173  1.403810 A    
C83   C147  1.422410 A    
C119  H11   1.083442 S    
C11   C60   1.507066 S    
C120  H12   1.083266 S    
O35   Cu12  1.961947 S    
C13   C54   1.496606 S    
C24   C38   1.413350 A    
C130  C138  1.431449 A    
C34   C44   1.411154 A    
C15   C56   1.489229 S    
C79   C143  1.414359 A    
C39   C42   1.414725 A    
C155  C163  1.392841 A    
O1    Cu1   1.962671 S    
C170  C178  1.400464 A    
C17   C35   1.405366 A    
C50   C68   1.408914 A    
C48   C65   1.408902 A    
C24   C69   1.409212 A    
C21   C39   1.416615 A    
O7    Cu7   1.964750 S    
O8    Cu8   1.964752 S    
C59   C64   1.411714 A    
C42   C66   1.419046 A    
O33   Cu11  1.964172 S    
C83   C91   1.416656 A    
C149  C157  1.384490 A    
C73   H5    1.074699 S    
C166  C174  1.399978 A    
C107  C115  1.430084 A    
C87   C175  1.400009 A    
C51   C59   1.433313 A    
C56   C61   1.416165 A    
C21   C72   1.412920 A    
C167  C203  1.485914 S    
C1    O17   1.287858 A    
C48   C56   1.431863 A    
C7    C128  1.489154 S    
C33   C35   1.409457 A    
C8    C127  1.483165 S    
Cu10  O47   1.967836 S    
C199  O59   1.221828 D    
C69   H1    1.076142 S    
O11   Cu3   1.952162 S    
C192  O52   1.221161 D    
C89   C97   1.420784 A    
C79   C87   1.405898 A    
C80   C88   1.411961 A    
Cu11  O41   1.965722 S    
C108  C156  1.415914 A    
C21   C29   1.421184 A    
C138  C146  1.419671 A    
O40   C186  1.306165 A    
C198  O58   1.222104 D    
O37   Cu9   1.964172 S    
C14   C53   1.496340 S    
C205  O65   1.220738 D    
C125  C133  1.439998 A    
C167  C175  1.404504 A    
C25   C27   1.414050 A    
C128  C136  1.430684 A    
C115  C123  1.393983 A    
C151  H19   1.073859 S    
C79   C100  1.407905 A    
C48   C70   1.407946 A    
C124  H16   1.083453 S    
C84   C95   1.410615 A    
C200  H52   1.079125 S    
C172  C208  1.485825 S    
C163  H31   1.081352 S    
Cu9   Cu10  2.675991 S    
C152  H20   1.076514 S    
Cu1   O17   1.956513 S    
C106  C146  1.409949 A    
Cu3   O27   1.970091 S    
C193  O53   1.220584 D    
C84   C148  1.411734 A    
C63   C199  1.482804 S    
C195  H47   1.084590 S    
C155  H23   1.079557 S    
C136  C168  1.420317 A    
C113  C187  1.490717 S    
C101  C149  1.415903 A    
C191  H43   1.084781 S    
C114  C188  1.474566 S    
C202  H54   1.083239 S    
C60   C63   1.415884 A    
C165  C201  1.479577 S    
C203  H55   1.085542 S    
C188  O48   1.289551 A    
C86   C94   1.425308 A    
C26   C195  1.487343 S    
C114  C122  1.395472 A    
C37   C41   1.417816 A    
C122  C130  1.394551 A    
C151  C159  1.384233 A    
C149  H17   1.074358 S    
C34   C36   1.410426 A    
Cu6   O30   1.968409 S    
O4    C15   1.298445 A    
C6    C125  1.500998 S    
O5    C10   1.308531 A    
C90   C178  1.408601 A    
C171  C179  1.396142 A    
C134  C142  1.412828 A    
C196  H48   1.084268 S    
C76   H8    1.074776 S    
C51   C68   1.409763 A    
C17   C25   1.420089 A    
C45   C71   1.405169 A    
C106  C114  1.420039 A    
C109  C183  1.491353 S    
C110  C184  1.482503 S    
C47   C69   1.407094 A    
C84   C92   1.403090 A    
C85   C93   1.427148 A    
Cu1   Cu6   2.671754 S    
C27   C194  1.487448 S    
C181  O41   1.285338 A    
C138  C170  1.420231 A    
C134  C166  1.417304 A    
Cu3   Cu8   2.669426 S    
C88   C96   1.415026 A    
C105  C153  1.410800 A    
C175  H35   1.082848 S    
O10   C5    1.309660 A    
O14   Cu6   1.952300 S    
C197  H49   1.084085 S    
C19   C74   1.404106 A    
C44   C68   1.422593 A    
C204  O64   1.221116 D    
C3    C132  1.479413 S    
O14   C1    1.307458 A    
C201  H53   1.085354 S    
C85   C173  1.405919 A    
C98   C157  1.396181 A    
C1    C130  1.489128 S    
C121  C129  1.400859 A    
C199  H51   1.083951 S    
Cu4   O20   1.956086 S    
Cu5   O21   1.956513 S    
O40   Cu9   1.961948 S    
C4    O20   1.288328 A    
C179  H39   1.080882 S    
C5    O21   1.283062 A    
C92   C180  1.400023 A    
C101  C109  1.430853 A    
C102  C142  1.413246 A    
C83   C96   1.411856 A    
C26   C28   1.415379 A    
C207  H59   1.082971 S    
C104  C112  1.431594 A    
O2    Cu2   1.962669 S    
C176  H36   1.083171 S    
C92   C100  1.402889 A    
C80   C144  1.422736 A    
C208  H60   1.084989 S    
C88   C176  1.404368 A    
C91   C99   1.421259 A    
Cu9   O45   1.965722 S    
C190  H42   1.083573 S    
C50   C58   1.432298 A    
C135  C143  1.415319 A    
C25   C196  1.491243 S    
C168  C176  1.398184 A    
C133  C165  1.423061 A    
C117  H9    1.083202 S    
C20   C34   1.409234 A    
C29   C31   1.416920 A    
C46   C54   1.425239 A    
Cu8   O24   1.956086 S    
C9    C58   1.501210 S    
C2    O18   1.292347 A    
C119  C127  1.397852 A    
C7    O23   1.286888 A    
C120  C128  1.399867 A    
Cu12  O43   1.967836 S    
C86   C174  1.405997 A    
C77   C141  1.428116 A    
O16   Cu8   1.952162 S    
C104  C144  1.412667 A    
O30   C14   1.290837 A    
C20   C73   1.404284 A    
C171  C207  1.475626 S    
C45   C65   1.409523 A    
C18   C26   1.420238 A    
C103  C143  1.415026 A    
C96   C163  1.405352 A    
C202  O62   1.221752 D    
C99   C160  1.406364 A    
O38   Cu10  1.964169 S    
O37   C187  1.308165 A    
C177  H37   1.076158 S    
O38   C188  1.299975 A    
O34   Cu12  1.964169 S    
O39   C185  1.311082 A    
C51   C73   1.411144 A    
C49   C57   1.431007 A    
C194  O54   1.220987 D    
C195  O55   1.220969 D    
C46   C72   1.404781 A    
C32   C189  1.489754 S    
C94   C161  1.404995 A    
O3    C16   1.300235 A    
C52   C67   1.411253 A    
C168  C204  1.480284 S    
C158  H26   1.076886 S    
C203  O63   1.221326 D    
O8    C11   1.308278 A    
C132  C140  1.426669 A    
C61   C197  1.484885 S    
O9    Cu1   1.952300 S    
C194  H46   1.084609 S    
C18   C75   1.403151 A    
C89   C177  1.404478 A    
C108  C148  1.410684 A    
C100  C159  1.392147 A    
C52   C60   1.432777 A    
O31   C15   1.292439 A    
C23   C37   1.413165 A    
C77   C85   1.408978 A    
O32   C16   1.290543 A    
C10   C57   1.503752 S    
C131  C139  1.425519 A    
C186  O46   1.285967 A    
C129  C137  1.432913 A    
C40   C41   1.414869 A    
C127  C135  1.429999 A    
C173  H33   1.076583 S    
O33   C183  1.311066 A    
O34   C184  1.313655 A    
C12   C59   1.504397 S    
C154  C162  1.386744 A    
C123  C131  1.394492 A    
C90   C98   1.413573 A    
C117  C125  1.401825 A    
C23   C70   1.409378 A    
C107  C155  1.410134 A    
C81   C145  1.428949 A    
C156  H24   1.078649 S    
O28   C12   1.289149 A    
Cu11  O44   1.967833 S    
C47   C66   1.409004 A    
C170  C206  1.484771 S    
C124  C132  1.396336 A    
Cu7   O23   1.956088 S    
C87   C95   1.413226 A    
C189  O49   1.221106 D    
C43   C67   1.421895 A    
C24   C32   1.420985 A    
O6    C9    1.310051 A    
Cu1   O25   1.968409 S    
C172  C180  1.399555 A    
C74   H6    1.070264 S    
C174  H34   1.077516 S    
C108  C116  1.423183 A    
C152  C160  1.391973 A    
C30   C32   1.416813 A    
C52   C74   1.410374 A    
C58   C64   1.413319 A    
C54   C62   1.401487 A    
C101  C141  1.415279 A    
