data_str_m4_o22_o22_f0_acs.sym.127
_audit_creation_date              2013-03-05T15:47:07-0500
_audit_creation_method            fapswitch 2.2
_symmetry_space_group_name_H-M    P1
_symmetry_Int_Tables_number       1
_space_group_crystal_system       triclinic
_cell_length_a                    19.620681
_cell_length_b                    11.360974
_cell_length_c                    18.728943
_cell_angle_alpha                 90.041879
_cell_angle_beta                  89.985314
_cell_angle_gamma                 90.086806
_cell_volume                      4174.8635162

loop_
_atom_site_label
_atom_site_type_symbol
_atom_site_description
_atom_site_fract_x
_atom_site_fract_y
_atom_site_fract_z
_atom_type_partial_charge
O1    O     O_R   0.957210 0.449410 0.665480 -0.535532
O2    O     O_R   0.042790 0.449410 0.334520 -0.534710
O3    O     O_R   0.457210 0.949410 0.665480 -0.535545
O4    O     O_R   0.542790 0.949410 0.334520 -0.534655
O5    O     O_R   0.820730 0.541240 0.668250 -0.503733
O6    O     O_R   0.179270 0.541240 0.331750 -0.504344
O7    O     O_R   0.320730 0.041240 0.668250 -0.503744
O8    O     O_R   0.679270 0.041240 0.331750 -0.504257
C1    C     C_R   0.760489 0.525332 0.639899 0.548942
C2    C     C_R   0.239278 0.523209 0.360845 0.548870
C3    C     C_R   0.260489 0.025330 0.639899 0.548915
C4    C     C_R   0.739270 0.023172 0.360857 0.548954
O9    O     O_R   0.714240 0.455060 0.663710 -0.538087
O10   O     O_R   0.285760 0.455060 0.336290 -0.537541
O11   O     O_R   0.214240 0.955060 0.663710 -0.538094
O12   O     O_R   0.785760 0.955060 0.336290 -0.537546
O13   O     O_R   0.736780 0.204870 0.675910 -0.530415
O14   O     O_R   0.263220 0.204870 0.324090 -0.528383
O15   O     O_R   0.236780 0.704870 0.675910 -0.530433
O16   O     O_R   0.763220 0.704870 0.324090 -0.528361
C5    C     C_R   0.773893 0.118854 0.650497 0.560851
C6    C     C_R   0.224392 0.123066 0.351334 0.558338
C7    C     C_R   0.273897 0.618860 0.650493 0.560793
C8    C     C_R   0.724402 0.623045 0.351326 0.558488
O17   O     O_R   0.833070 0.087590 0.673490 -0.470348
O18   O     O_R   0.166930 0.087590 0.326510 -0.475542
O19   O     O_R   0.333070 0.587590 0.673490 -0.470276
O20   O     O_R   0.666930 0.587590 0.326510 -0.475941
O21   O     O_R   0.946890 0.246800 0.676300 -0.521503
O22   O     O_R   0.053110 0.246800 0.323700 -0.520186
O23   O     O_R   0.446890 0.746800 0.676300 -0.521478
O24   O     O_R   0.553110 0.746800 0.323700 -0.520355
C9    C     C_R   0.970001 0.341951 0.645607 0.532746
C10   C     C_R   0.030534 0.342257 0.354864 0.534367
C11   C     C_R   0.470007 0.841952 0.645612 0.532732
C12   C     C_R   0.530535 0.842260 0.354866 0.534364
O25   O     O_R   0.956650 0.457120 0.827980 -0.531960
O26   O     O_R   0.043350 0.457120 0.172020 -0.531605
O27   O     O_R   0.456650 0.957120 0.827980 -0.531960
O28   O     O_R   0.543350 0.957120 0.172020 -0.531604
O29   O     O_R   0.820220 0.548390 0.818890 -0.506883
O30   O     O_R   0.179780 0.548390 0.181110 -0.506359
O31   O     O_R   0.320220 0.048390 0.818890 -0.506882
O32   O     O_R   0.679780 0.048390 0.181110 -0.506343
C13   C     C_R   0.760490 0.534109 0.848810 0.536529
C14   C     C_R   0.239519 0.533994 0.151191 0.536654
C15   C     C_R   0.260490 0.034109 0.848810 0.536527
C16   C     C_R   0.739519 0.033994 0.151191 0.536670
O33   O     O_R   0.713680 0.462770 0.826210 -0.533293
O34   O     O_R   0.286320 0.462770 0.173790 -0.532861
O35   O     O_R   0.213680 0.962770 0.826210 -0.533293
O36   O     O_R   0.786320 0.962770 0.173790 -0.532857
O37   O     O_R   0.736260 0.212010 0.826560 -0.511251
O38   O     O_R   0.263740 0.212010 0.173440 -0.510620
O39   O     O_R   0.236260 0.712010 0.826560 -0.511249
O40   O     O_R   0.763740 0.712010 0.173440 -0.510611
C17   C     C_R   0.774091 0.133217 0.858964 0.534307
C18   C     C_R   0.225923 0.133110 0.141046 0.535281
C19   C     C_R   0.274091 0.633217 0.858964 0.534301
C20   C     C_R   0.725923 0.633110 0.141046 0.535319
O41   O     O_R   0.832520 0.095300 0.836000 -0.532978
O42   O     O_R   0.167480 0.095300 0.164000 -0.532094
O43   O     O_R   0.332520 0.595300 0.836000 -0.532977
O44   O     O_R   0.667480 0.595300 0.164000 -0.532083
O45   O     O_R   0.946380 0.253940 0.826940 -0.514893
O46   O     O_R   0.053620 0.253940 0.173060 -0.514389
O47   O     O_R   0.446380 0.753940 0.826940 -0.514893
O48   O     O_R   0.553620 0.753940 0.173060 -0.514388
C21   C     C_R   0.968059 0.353122 0.854152 0.533683
C22   C     C_R   0.031949 0.353013 0.145832 0.533655
C23   C     C_R   0.468059 0.853122 0.854152 0.533677
C24   C     C_R   0.531949 0.853013 0.145832 0.533666
Cr1   Cr    Cr6+3 0.885690 0.492860 0.745310 0.999130
Cr2   Cr    Cr6+3 0.114310 0.492860 0.254690 1.000591
Cr3   Cr    Cr6+3 0.385690 0.992860 0.745310 0.999125
Cr4   Cr    Cr6+3 0.614310 0.992860 0.254690 1.000697
Cr5   Cr    Cr6+3 0.729880 0.332270 0.748190 0.987138
Cr6   Cr    Cr6+3 0.270120 0.332270 0.251810 0.988843
Cr7   Cr    Cr6+3 0.229880 0.832270 0.748190 0.987125
Cr8   Cr    Cr6+3 0.770120 0.832270 0.251810 0.988870
Cr9   Cr    Cr6+3 0.888120 0.178590 0.753010 0.996723
Cr10  Cr    Cr6+3 0.111880 0.178590 0.246990 1.000941
Cr11  Cr    Cr6+3 0.388120 0.678590 0.753010 0.996783
Cr12  Cr    Cr6+3 0.611880 0.678590 0.246990 1.000632
O49   O     O_3   0.834560 0.334570 0.748840 -0.277261
O50   O     O_3   0.165440 0.334570 0.251160 -0.279434
O51   O     O_3   0.334560 0.834570 0.748840 -0.277266
O52   O     O_3   0.665440 0.834570 0.251160 -0.279420
C25   C     C_3   0.688145 0.117502 0.468393 -0.269381
C26   C     C_3   0.308197 0.135854 0.534679 -0.268136
C27   C     C_3   0.188144 0.617537 0.468384 -0.269300
C28   C     C_3   0.808191 0.635879 0.534679 -0.268126
H1    H     H_    0.639632 0.088041 0.447767 0.136793
H2    H     H_    0.358888 0.113084 0.554314 0.135475
H3    H     H_    0.139637 0.588022 0.447768 0.136826
H4    H     H_    0.858890 0.613200 0.554333 0.135456
H5    H     H_    0.692341 0.208094 0.448809 0.181255
H6    H     H_    0.300017 0.225432 0.553745 0.185450
H7    H     H_    0.192295 0.708140 0.448786 0.181065
H8    H     H_    0.799969 0.725446 0.553730 0.185469
C29   C     C_3   0.689844 0.117413 0.549948 -0.301306
C30   C     C_3   0.306052 0.135246 0.453241 -0.293570
C31   C     C_3   0.189853 0.617406 0.549944 -0.301245
C32   C     C_3   0.806057 0.635278 0.453240 -0.293565
H9    H     H_    0.671753 0.203469 0.569708 0.136483
H10   H     H_    0.320322 0.222608 0.433287 0.143265
H11   H     H_    0.171754 0.703430 0.569739 0.136450
H12   H     H_    0.820303 0.722647 0.433285 0.143269
H13   H     H_    0.653941 0.052557 0.571563 0.100419
H14   H     H_    0.345456 0.075440 0.432264 0.098184
H15   H     H_    0.153962 0.552510 0.571546 0.100386
H16   H     H_    0.845491 0.575523 0.432268 0.098157
H17   H     H_    0.729335 0.874860 0.467415 0.081579
H18   H     H_    0.294924 0.913953 0.521128 0.068152
H19   H     H_    0.229353 0.374970 0.467400 0.081589
H20   H     H_    0.794952 0.413917 0.521212 0.068221
H21   H     H_    0.731102 0.906883 0.584233 0.104665
H22   H     H_    0.270909 0.917756 0.410373 0.106355
H23   H     H_    0.231156 0.406887 0.584213 0.104655
H24   H     H_    0.771086 0.417817 0.410413 0.106433
C33   C     C_3   0.768477 0.937687 0.478204 -0.200897
C34   C     C_3   0.243271 0.943070 0.520507 -0.199007
C35   C     C_3   0.268506 0.437756 0.478182 -0.200854
C36   C     C_3   0.743304 0.443048 0.520509 -0.199045
C37   C     C_3   0.810891 0.133849 0.449272 -0.266480
C38   C     C_3   0.184859 0.129543 0.552955 -0.263302
C39   C     C_3   0.310884 0.633947 0.449263 -0.266463
C40   C     C_3   0.684856 0.629503 0.552941 -0.263383
C41   C     C_3   0.750217 0.053315 0.437149 0.032308
C42   C     C_3   0.249725 0.059450 0.564337 0.036784
C43   C     C_3   0.250227 0.553381 0.437135 0.032289
C44   C     C_3   0.749731 0.559440 0.564332 0.036752
H25   H     H_    0.857288 0.088990 0.429943 0.116753
H26   H     H_    0.141985 0.078389 0.575398 0.120157
H27   H     H_    0.357284 0.589118 0.429918 0.116762
H28   H     H_    0.641981 0.578368 0.575402 0.120144
H29   H     H_    0.805687 0.217038 0.418717 0.108958
H30   H     H_    0.186663 0.214502 0.582128 0.102946
H31   H     H_    0.305656 0.717141 0.418720 0.108824
H32   H     H_    0.686652 0.714482 0.582092 0.102974
C45   C     C_3   0.762745 0.086030 0.575234 0.081089
C46   C     C_3   0.234824 0.092831 0.426820 0.074099
C47   C     C_3   0.262760 0.586056 0.575223 0.081062
C48   C     C_3   0.734844 0.592797 0.426808 0.074109
C49   C     C_3   0.774730 0.954875 0.559942 0.145407
C50   C     C_3   0.228514 0.959870 0.440595 0.145668
C51   C     C_3   0.274769 0.454913 0.559917 0.145399
C52   C     C_3   0.728618 0.459824 0.440577 0.145642
C53   C     C_3   0.814100 0.158166 0.530454 -0.221942
C54   C     C_3   0.177431 0.150521 0.471691 -0.212815
C55   C     C_3   0.314104 0.658235 0.530450 -0.221863
C56   C     C_3   0.677420 0.650424 0.471675 -0.212961
H33   H     H_    0.798573 0.245884 0.540430 0.101292
H34   H     H_    0.168770 0.240225 0.457934 0.090167
H35   H     H_    0.298587 0.745951 0.540457 0.101250
H36   H     H_    0.668697 0.740120 0.457895 0.090294
H37   H     H_    0.865664 0.150355 0.550622 0.140046
H38   H     H_    0.130849 0.112825 0.453822 0.155358
H39   H     H_    0.365669 0.650424 0.550608 0.140061
H40   H     H_    0.630864 0.612588 0.453837 0.155256
H41   H     H_    0.815790 0.902393 0.455499 0.127702
H42   H     H_    0.209113 0.877835 0.545068 0.135237
H43   H     H_    0.315803 0.402431 0.455457 0.127735
H44   H     H_    0.709093 0.377852 0.545035 0.135273
C57   C     C_3   0.001304 0.206262 0.459509 -0.233865
C58   C     C_3   0.002912 0.205855 0.541677 -0.241389
C59   C     C_3   0.501313 0.706290 0.459517 -0.233856
C60   C     C_3   0.502906 0.705870 0.541683 -0.241318
H45   H     H_    0.034469 0.141897 0.435059 0.121179
H46   H     H_    0.968388 0.139504 0.563820 0.121296
H47   H     H_    0.534527 0.642011 0.435094 0.121091
H48   H     H_    0.468378 0.639524 0.563820 0.121331
H49   H     H_    0.951737 0.171721 0.442359 0.102739
H50   H     H_    0.052888 0.176260 0.559977 0.109143
H51   H     H_    0.451769 0.671691 0.442340 0.102732
H52   H     H_    0.552877 0.676251 0.559989 0.109162
H53   H     H_    0.615510 0.894612 0.456967 0.110275
H54   H     H_    0.386265 0.847907 0.542341 0.108264
H55   H     H_    0.115503 0.394604 0.456968 0.110251
H56   H     H_    0.886285 0.347690 0.542274 0.108224
H57   H     H_    0.600175 0.858722 0.579419 0.096456
H58   H     H_    0.398620 0.844944 0.418331 0.097927
H59   H     H_    0.100160 0.358759 0.579420 0.096449
H60   H     H_    0.898625 0.344985 0.418292 0.097883
C61   C     C_3   0.062807 0.409368 0.473818 -0.209616
C62   C     C_3   0.931909 0.392981 0.526742 -0.215873
C63   C     C_3   0.562814 0.909377 0.473824 -0.209622
C64   C     C_3   0.431931 0.893051 0.526755 -0.215810
C65   C     C_3   0.941142 0.392006 0.445097 -0.265515
C66   C     C_3   0.055025 0.401361 0.554782 -0.260922
C67   C     C_3   0.441140 0.892003 0.445106 -0.265520
C68   C     C_3   0.555042 0.901346 0.554790 -0.260965
C69   C     C_3   0.009568 0.333984 0.430882 0.072332
C70   C     C_3   0.990336 0.332674 0.569503 0.066690
C71   C     C_3   0.509570 0.833998 0.430889 0.072295
C72   C     C_3   0.490343 0.832684 0.569510 0.066683
H61   H     H_    0.941500 0.483230 0.423892 0.121121
H62   H     H_    0.050282 0.491323 0.577739 0.128435
H63   H     H_    0.441484 0.983207 0.423869 0.121106
H64   H     H_    0.550310 0.991301 0.577759 0.128391
H65   H     H_    0.929687 0.485575 0.542900 0.137873
H66   H     H_    0.050754 0.502267 0.461094 0.129943
H67   H     H_    0.429817 0.985683 0.542876 0.137829
H68   H     H_    0.550753 0.002276 0.461108 0.129934
C73   C     C_3   0.814284 0.016149 0.045160 -0.227142
C74   C     C_3   0.185692 0.015926 0.954798 -0.227004
C75   C     C_3   0.314284 0.516149 0.045160 -0.227140
C76   C     C_3   0.685692 0.515926 0.954798 -0.227005
H69   H     H_    0.818620 0.922544 0.057490 0.137105
H70   H     H_    0.181369 0.922249 0.942453 0.137237
H71   H     H_    0.318620 0.422544 0.057490 0.137105
H72   H     H_    0.681369 0.422249 0.942453 0.137237
H73   H     H_    0.859216 0.057188 0.071471 0.116011
H74   H     H_    0.140782 0.056741 0.928457 0.115861
H75   H     H_    0.359216 0.557188 0.071471 0.116007
H76   H     H_    0.640782 0.556741 0.928457 0.115862
C77   C     C_3   0.819552 0.031446 0.965893 -0.226193
C78   C     C_3   0.180335 0.031359 0.034058 -0.226480
C79   C     C_3   0.319552 0.531446 0.965893 -0.226192
C80   C     C_3   0.680335 0.531359 0.034058 -0.226481
H77   H     H_    0.869078 0.069958 0.953831 0.133859
H78   H     H_    0.130881 0.070097 0.046045 0.133804
H79   H     H_    0.369078 0.569958 0.953831 0.133858
H80   H     H_    0.630881 0.570097 0.046045 0.133805
H81   H     H_    0.820642 0.943515 0.939780 0.117864
H82   H     H_    0.179043 0.943468 0.060157 0.118001
H83   H     H_    0.320642 0.443515 0.939780 0.117864
H84   H     H_    0.679043 0.443468 0.060157 0.118004
H85   H     H_    0.662835 0.947184 0.050356 0.111457
H86   H     H_    0.337157 0.947480 0.949517 0.111505
H87   H     H_    0.162835 0.447184 0.050356 0.111458
H88   H     H_    0.837157 0.447480 0.949517 0.111505
H89   H     H_    0.702926 0.940810 0.928545 0.109756
H90   H     H_    0.296952 0.940846 0.071280 0.109911
H91   H     H_    0.202926 0.440810 0.928545 0.109755
H92   H     H_    0.796952 0.440846 0.071280 0.109917
C81   C     C_3   0.683561 0.029901 0.031222 -0.215505
C82   C     C_3   0.316451 0.030125 0.968749 -0.215498
C83   C     C_3   0.183561 0.529901 0.031222 -0.215501
C84   C     C_3   0.816451 0.530125 0.968749 -0.215501
C85   C     C_3   0.753988 0.203240 0.061791 -0.260611
C86   C     C_3   0.246095 0.203247 0.938356 -0.260786
C87   C     C_3   0.253989 0.703240 0.061791 -0.260615
C88   C     C_3   0.746095 0.703246 0.938356 -0.260784
C89   C     C_3   0.747547 0.070660 0.074762 0.061001
C90   C     C_3   0.252487 0.070705 0.925258 0.061400
C91   C     C_3   0.247546 0.570660 0.074762 0.061007
C92   C     C_3   0.752487 0.570705 0.925258 0.061400
H93   H     H_    0.712668 0.251463 0.089909 0.112683
H94   H     H_    0.287445 0.251606 0.910287 0.112381
H95   H     H_    0.212668 0.751463 0.089909 0.112673
H96   H     H_    0.787445 0.751606 0.910287 0.112382
H97   H     H_    0.803059 0.236704 0.082730 0.109203
H98   H     H_    0.197026 0.236535 0.917464 0.109118
H99   H     H_    0.303059 0.736704 0.082730 0.109196
H100  H     H_    0.697025 0.736535 0.917464 0.109120
C93   C     C_3   0.759566 0.105638 0.936021 0.062247
C94   C     C_3   0.240426 0.105558 0.063997 0.061849
C95   C     C_3   0.259566 0.605638 0.936021 0.062247
C96   C     C_3   0.740426 0.605558 0.063997 0.061846
C97   C     C_3   0.695752 0.031185 0.949233 -0.260521
C98   C     C_3   0.304200 0.031272 0.050725 -0.260618
C99   C     C_3   0.195752 0.531185 0.949233 -0.260523
C100  C     C_3   0.804200 0.531272 0.050725 -0.260618
C101  C     C_3   0.748760 0.222287 0.979739 -0.218639
C102  C     C_3   0.251314 0.222266 0.020422 -0.218637
C103  C     C_3   0.248760 0.722287 0.979739 -0.218635
C104  C     C_3   0.751313 0.722266 0.020422 -0.218641
H101  H     H_    0.780116 0.294618 0.961456 0.107806
H102  H     H_    0.219946 0.294449 0.038782 0.107837
H103  H     H_    0.280116 0.794618 0.961456 0.107807
H104  H     H_    0.719946 0.794449 0.038782 0.107837
H105  H     H_    0.695692 0.249812 0.969345 0.116422
H106  H     H_    0.304400 0.249922 0.030875 0.116607
H107  H     H_    0.195692 0.749812 0.969345 0.116422
H108  H     H_    0.804400 0.749922 0.030875 0.116607
H109  H     H_    0.643944 0.096569 0.042051 0.119641
H110  H     H_    0.356146 0.096908 0.958010 0.119450
H111  H     H_    0.143944 0.596569 0.042051 0.119642
H112  H     H_    0.856146 0.596908 0.958010 0.119450
H113  H     H_    0.651344 0.069980 0.921113 0.109897
H114  H     H_    0.348639 0.070140 0.078914 0.110071
H115  H     H_    0.151344 0.569979 0.921113 0.109896
H116  H     H_    0.848639 0.570140 0.078914 0.110073
C105  C     C_3   0.004552 0.477284 0.040088 -0.227290
C106  C     C_3   0.995517 0.477366 0.960030 -0.227663
C107  C     C_3   0.504552 0.977284 0.040088 -0.227292
C108  C     C_3   0.495517 0.977366 0.960030 -0.227662
H117  H     H_    0.048312 0.531603 0.053910 0.132788
H118  H     H_    0.951712 0.531435 0.946320 0.132607
H119  H     H_    0.548312 0.031603 0.053910 0.132786
H120  H     H_    0.451712 0.031435 0.946320 0.132608
H121  H     H_    0.960743 0.522644 0.065564 0.115376
H122  H     H_    0.039321 0.522958 0.934604 0.115209
H123  H     H_    0.460743 0.022644 0.065564 0.115373
H124  H     H_    0.539321 0.022958 0.934604 0.115209
H125  H     H_    0.615651 0.785114 0.045797 0.111077
H126  H     H_    0.384293 0.785339 0.954103 0.111437
H127  H     H_    0.115651 0.285114 0.045797 0.111073
H128  H     H_    0.884293 0.285339 0.954103 0.111438
H129  H     H_    0.600042 0.848988 0.924196 0.108702
H130  H     H_    0.399984 0.848711 0.075814 0.108732
H131  H     H_    0.100042 0.348988 0.924196 0.108701
H132  H     H_    0.899984 0.348711 0.075814 0.108735
C109  C     C_3   0.064072 0.275148 0.026213 -0.213555
C110  C     C_3   0.935849 0.275205 0.973654 -0.213409
C111  C     C_3   0.564072 0.775148 0.026213 -0.213554
C112  C     C_3   0.435849 0.775205 0.973654 -0.213407
C113  C     C_3   0.941644 0.292457 0.055481 -0.262426
C114  C     C_3   0.058315 0.292644 0.944420 -0.262322
C115  C     C_3   0.441644 0.792457 0.055481 -0.262426
C116  C     C_3   0.558315 0.792644 0.944420 -0.262323
C117  C     C_3   0.010885 0.349974 0.069260 0.062704
C118  C     C_3   0.989133 0.350122 0.930709 0.062758
C119  C     C_3   0.510885 0.849974 0.069260 0.062704
C120  C     C_3   0.489134 0.850122 0.930709 0.062758
H133  H     H_    0.938111 0.206395 0.083357 0.109561
H134  H     H_    0.061788 0.206637 0.916398 0.109392
H135  H     H_    0.438111 0.706395 0.083357 0.109557
H136  H     H_    0.561787 0.706637 0.916398 0.109393
H137  H     H_    0.949177 0.182389 0.962927 0.121436
H138  H     H_    0.050645 0.182249 0.036757 0.121099
H139  H     H_    0.449177 0.682389 0.962927 0.121436
H140  H     H_    0.550645 0.682249 0.036757 0.121101
O53   O     O_3   0.833422 0.907508 0.595559 -0.550368
C121  C     C_3   0.895559 0.903541 0.557000 0.000911
H141  H     H_    0.903873 0.980101 0.522118 0.113746
H142  H     H_    0.897777 0.823402 0.523348 0.106889
C122  C     C_3   0.954384 0.896135 0.609728 -0.354463
H143  H     H_    0.949691 0.814778 0.642233 0.154569
H144  H     H_    0.003604 0.893969 0.580538 0.066805
H145  H     H_    0.954090 0.973611 0.645864 0.176724
O54   O     O_3   0.167992 0.906339 0.411432 -0.548770
C123  C     C_3   0.109526 0.890984 0.455864 -0.002283
H146  H     H_    0.102259 0.956902 0.497724 0.107577
H147  H     H_    0.110512 0.807309 0.485219 0.105844
C124  C     C_3   0.046460 0.887213 0.408591 -0.361684
H148  H     H_    0.047880 0.807400 0.374316 0.154236
H149  H     H_    0.999731 0.884301 0.441905 0.066642
H150  H     H_    0.044567 0.965922 0.373632 0.172284
O55   O     O_3   0.333479 0.407568 0.595513 -0.550340
C125  C     C_3   0.395598 0.403582 0.556922 0.000890
H151  H     H_    0.403915 0.480187 0.522076 0.113759
H152  H     H_    0.397780 0.323480 0.523234 0.106900
C126  C     C_3   0.454443 0.396056 0.609618 -0.354505
H153  H     H_    0.449736 0.314659 0.642086 0.154573
H154  H     H_    0.503650 0.393881 0.580404 0.066819
H155  H     H_    0.454187 0.473483 0.645794 0.176646
O56   O     O_3   0.668192 0.406073 0.411345 -0.548940
C127  C     C_3   0.609604 0.390971 0.455634 -0.002324
H156  H     H_    0.602587 0.456464 0.497793 0.107502
H157  H     H_    0.610223 0.306952 0.484652 0.106006
C128  C     C_3   0.546577 0.388393 0.408271 -0.361679
H158  H     H_    0.547509 0.308514 0.374032 0.153684
H159  H     H_    0.499792 0.386459 0.441518 0.066532
H160  H     H_    0.545252 0.467050 0.373250 0.173219

loop_
_geom_bond_atom_site_label_1
_geom_bond_atom_site_label_2
_geom_bond_distance
_ccdc_geom_bond_type
O4    C12   1.297948 A    
O39   C19   1.312880 A    
C46   C50   1.537422 S    
C96   C100  1.530540 S    
C36   H44   1.099546 S    
Cr7   O51   2.054061 S    
C124  H148  1.110987 S    
C61   C66   1.526749 S    
O54   C123  1.427578 S    
C103  H107  1.104993 S    
C39   H31   1.110040 S    
C64   C67   1.539830 S    
C93   C97   1.530144 S    
C87   C103  1.555494 S    
C73   C89   1.551481 S    
C27   C43   1.536007 S    
C109  C114  1.549049 S    
O21   C9    1.305352 A    
C25   C41   1.535963 S    
C1    O9    1.287565 A    
C2    C43   1.484727 S    
O44   Cr12  2.121672 S    
C3    O11   1.287547 A    
C56   H36   1.065494 S    
C121  H141  1.100148 S    
C55   H35   1.059017 S    
H20   C36   1.066620 S    
C112  C115  1.549055 S    
C45   C49   1.535561 S    
H54   C64   1.072273 S    
O2    C10   1.297966 A    
C47   C55   1.545486 S    
O17   Cr9   2.109213 S    
C7    C47   1.474141 S    
C128  H159  1.109298 S    
C57   H45   1.081035 S    
C58   H50   1.092407 S    
H19   C35   1.066743 S    
O16   Cr8   1.986961 S    
C110  C118  1.569155 S    
C93   C101  1.571892 S    
C113  C117  1.528572 S    
C125  H151  1.100152 S    
C59   H47   1.080750 S    
C63   H68   1.108052 S    
O13   C5    1.308836 A    
O28   Cr4   2.121107 S    
C31   C47   1.549015 S    
O12   Cr8   2.130580 S    
C61   H66   1.108051 S    
O22   Cr10  1.998627 S    
C81   H109  1.104760 S    
O46   Cr10  1.990532 S    
C35   H43   1.097302 S    
O48   C24   1.307724 A    
C33   H41   1.097301 S    
C121  C122  1.521662 S    
C81   C89   1.566440 S    
C126  H155  1.109948 S    
C37   C53   1.546416 S    
C11   C72   1.483721 S    
C9    C70   1.483754 S    
H24   C52   1.114368 S    
C85   C101  1.555494 S    
H85   C81   1.084519 S    
C108  H120  1.088071 S    
C124  H150  1.109349 S    
O31   Cr3   1.986829 S    
H89   C97   1.106330 S    
C114  C118  1.529041 S    
C65   H61   1.110160 S    
C25   C29   1.527816 S    
C59   C71   1.555385 S    
Cr12  O52   2.060324 S    
C27   C31   1.527911 S    
C125  C126  1.521651 S    
C75   C91   1.551481 S    
C6    C46   1.469596 S    
C24   C119  1.492936 S    
C17   O41   1.298369 A    
C19   O43   1.298369 A    
C20   O44   1.297213 A    
C20   C96   1.503572 S    
Cr8   O52   2.054136 S    
C123  C124  1.522241 S    
O46   C22   1.307724 A    
C106  C118  1.550929 S    
C17   C93   1.504132 S    
C107  H123  1.110342 S    
C68   H64   1.112540 S    
C127  H156  1.093356 S    
C39   C43   1.517337 S    
C80   C96   1.552984 S    
C28   C32   1.525858 S    
C37   C41   1.517373 S    
C16   O36   1.296176 A    
C38   H26   1.104890 S    
C88   H100  1.106611 S    
C95   C99   1.530144 S    
O29   C13   1.308828 A    
C31   H11   1.104164 S    
C22   C117  1.492936 S    
H23   C51   1.111659 S    
C78   H82   1.112327 S    
C85   C89   1.530912 S    
O47   Cr11  1.988169 S    
O56   C127  1.427599 S    
C115  C119  1.528571 S    
C77   C93   1.553304 S    
C73   C77   1.498380 S    
C18   C94   1.503572 S    
O24   C12   1.309001 A    
H21   C49   1.111654 S    
C28   C44   1.541313 S    
C8    C48   1.469595 S    
H57   C68   1.110539 S    
C105  H117  1.087800 S    
C28   H4    1.092018 S    
C36   C44   1.560788 S    
C111  C116  1.549047 S    
C107  C119  1.551662 S    
O32   Cr4   1.986231 S    
C26   C30   1.525855 S    
C53   H33   1.059002 S    
C39   C55   1.546479 S    
C40   C56   1.547599 S    
O11   Cr7   2.132703 S    
C104  H104  1.081906 S    
H130  C115  1.105746 S    
C49   O53   1.436491 S    
O27   Cr3   2.122348 S    
C96   C104  1.571736 S    
O3    Cr3   2.109077 S    
C34   C50   1.536580 S    
Cr5   O49   2.054061 S    
C75   H71   1.091846 S    
C122  H144  1.109896 S    
C83   C99   1.554112 S    
C94   C98   1.530539 S    
C84   C100  1.554014 S    
C13   C92   1.498922 S    
C87   H95   1.111519 S    
O22   C10   1.308961 A    
C81   C97   1.554111 S    
C4    O12   1.282167 A    
C2    O10   1.282224 A    
C32   H16   1.102208 S    
C123  H146  1.093268 S    
H127  C109  1.082263 S    
C108  H124  1.110204 S    
C115  H135  1.110816 S    
C55   H39   1.083771 S    
C76   C92   1.551964 S    
O5    C1    1.308129 A    
O25   C21   1.299257 A    
C74   H70   1.092094 S    
O3    C11   1.300823 A    
O8    C4    1.313938 A    
C104  H108  1.104979 S    
C116  H136  1.110987 S    
Cr1   O49   2.058992 S    
C63   C68   1.526799 S    
H56   C62   1.072104 S    
C97   H113  1.110204 S    
C101  H105  1.104991 S    
C58   H46   1.094457 S    
C85   H97   1.106425 S    
C94   C102  1.571736 S    
C59   H51   1.096257 S    
O26   Cr2   2.121107 S    
Cr3   O51   2.058992 S    
C60   H52   1.092438 S    
C5    O17   1.288975 A    
H91   C99   1.106329 S    
O28   C24   1.299204 A    
O14   C6    1.304917 A    
C87   H99   1.106425 S    
C62   C70   1.558400 S    
C58   C70   1.551854 S    
C105  C117  1.551662 S    
C82   H110  1.105014 S    
C31   H15   1.096318 S    
O40   Cr8   2.008336 S    
C40   H32   1.109304 S    
C48   C56   1.550853 S    
O41   Cr9   2.121213 S    
C38   C54   1.547655 S    
C74   H74   1.112058 S    
O31   C15   1.308828 A    
O33   Cr5   2.105321 S    
C33   C49   1.547994 S    
C111  H140  1.105329 S    
C86   C102  1.555358 S    
C25   H1    1.079972 S    
C67   C71   1.519900 S    
O29   Cr1   1.986829 S    
C65   C69   1.519904 S    
O15   C7    1.308856 A    
H90   C98   1.106309 S    
C111  C119  1.569384 S    
C121  H142  1.107844 S    
C30   C46   1.558259 S    
C27   H7    1.095981 S    
H125  C111  1.082262 S    
Cr9   O49   2.063160 S    
C77   H81   1.112190 S    
C18   O42   1.297213 A    
Cr11  O51   2.063160 S    
O26   C22   1.299204 A    
O20   Cr12  2.111883 S    
C128  H158  1.110994 S    
C36   C52   1.536647 S    
C86   C90   1.530803 S    
C68   C72   1.514306 S    
C74   C90   1.551965 S    
C39   H27   1.104734 S    
C40   H28   1.104904 S    
C125  H152  1.107870 S    
C38   C42   1.517501 S    
C29   H13   1.096241 S    
C109  C117  1.569381 S    
C80   H84   1.112327 S    
C83   C91   1.566439 S    
O30   C14   1.309478 A    
C101  H101  1.081574 S    
C103  H103  1.081573 S    
H129  C116  1.105495 S    
C83   H111  1.104758 S    
C52   O56   1.440816 S    
C84   H112  1.105013 S    
O6    Cr2   2.001811 S    
C126  H154  1.109908 S    
C23   C120  1.492785 S    
O42   Cr10  2.121672 S    
C73   H73   1.111791 S    
O18   Cr10  2.111883 S    
C77   H77   1.088792 S    
C19   C95   1.504132 S    
O34   Cr6   2.106147 S    
C124  H149  1.109350 S    
C26   H2    1.091993 S    
H132  C113  1.105745 S    
O24   Cr12  1.998627 S    
O30   Cr2   1.986231 S    
C110  C113  1.549056 S    
C109  H138  1.105328 S    
C106  H118  1.088071 S    
C45   C53   1.545451 S    
C78   C94   1.552984 S    
C8    O20   1.283916 A    
C4    C41   1.484689 S    
C59   C60   1.539204 S    
O37   C17   1.312880 A    
C15   O35   1.294996 A    
C127  C128  1.522308 S    
C37   H29   1.110077 S    
Cr10  O50   2.060324 S    
C88   C92   1.530803 S    
C62   H65   1.095335 S    
O43   Cr11  2.121213 S    
O48   Cr12  1.990532 S    
O7    C3    1.308130 A    
O21   Cr9   1.998084 S    
C105  C106  1.509898 S    
O39   Cr7   2.010053 S    
O45   Cr9   1.988169 S    
C107  C108  1.509898 S    
C13   O33   1.294996 A    
C82   C90   1.566502 S    
C75   H75   1.111792 S    
O23   Cr11  1.998084 S    
C85   H93   1.111519 S    
O15   Cr7   1.985820 S    
C10   C69   1.484889 S    
H92   C100  1.106307 S    
C87   C91   1.530912 S    
C100  H116  1.110269 S    
O23   C11   1.305362 A    
C82   C98   1.554012 S    
H58   C67   1.109847 S    
C3    C42   1.482847 S    
C32   H12   1.096674 S    
C128  H160  1.109231 S    
C66   H62   1.112548 S    
C1    C44   1.482874 S    
H128  C110  1.082216 S    
C54   H38   1.062786 S    
C35   C43   1.564679 S    
C33   C41   1.564704 S    
C34   H42   1.099493 S    
O6    C2    1.313928 A    
H55   C61   1.094090 S    
H53   C63   1.094121 S    
O1    Cr1   2.109077 S    
C46   C54   1.550758 S    
C62   C65   1.539813 S    
O19   Cr11  2.109213 S    
C86   H94   1.111441 S    
C5    C45   1.474126 S    
C98   H114  1.110270 S    
C102  H106  1.104979 S    
O45   C21   1.306975 A    
O47   C23   1.306975 A    
O53   C121  1.417611 S    
C95   C103  1.571892 S    
C79   H79   1.088791 S    
C26   C42   1.541299 S    
O40   C20   1.311321 A    
C60   H48   1.094427 S    
C6    O18   1.283887 A    
C84   C92   1.566501 S    
C79   H83   1.112191 S    
O36   Cr8   2.106147 S    
C53   H37   1.083806 S    
C15   C90   1.498920 S    
H126  C112  1.082216 S    
O38   Cr6   2.008336 S    
C76   C80   1.498340 S    
O32   C16   1.309478 A    
C56   H40   1.062805 S    
C57   C58   1.539271 S    
C122  H143  1.110843 S    
O37   Cr5   2.010053 S    
O8    Cr4   2.001811 S    
C48   C52   1.537412 S    
O1    C9    1.300842 A    
O55   C125  1.417605 S    
C74   C78   1.498340 S    
C47   C51   1.535563 S    
C106  H122  1.110204 S    
C16   C89   1.499282 S    
C50   O54   1.440813 S    
C67   H63   1.110169 S    
C14   C91   1.499282 S    
C123  H147  1.098704 S    
C57   H49   1.096274 S    
C99   H115  1.110202 S    
H87   C83   1.084519 S    
C112  C120  1.569155 S    
C29   C45   1.549024 S    
O16   C8    1.304917 A    
C32   C48   1.558281 S    
C7    O19   1.288953 A    
Cr4   O52   2.061561 S    
O2    Cr2   2.108595 S    
C76   H72   1.092095 S    
Cr6   O50   2.054136 S    
C76   H76   1.112058 S    
O27   C23   1.299257 A    
O5    Cr1   2.003449 S    
C113  H133  1.110817 S    
C40   C44   1.517503 S    
O13   Cr5   1.985820 S    
C78   H78   1.089327 S    
O35   Cr7   2.105321 S    
C29   H9    1.104207 S    
O9    Cr5   2.132703 S    
H22   C50   1.114374 S    
C102  H102  1.081907 S    
O7    Cr3   2.003449 S    
C114  H134  1.110987 S    
C27   H3    1.079981 S    
C116  C120  1.529041 S    
C25   H5    1.095837 S    
C88   C104  1.555356 S    
C127  H157  1.098834 S    
C73   H69   1.091845 S    
H17   C33   1.066926 S    
Cr2   O50   2.061561 S    
C112  H139  1.105070 S    
H131  C114  1.105495 S    
O14   Cr6   1.986961 S    
C35   C51   1.547923 S    
C60   C72   1.551780 S    
C86   H98   1.106610 S    
C122  H145  1.109941 S    
C107  H119  1.087800 S    
H86   C82   1.084885 S    
C79   C95   1.553303 S    
C108  C120  1.550928 S    
C80   H80   1.089329 S    
C28   H8    1.090289 S    
O38   C18   1.311321 A    
C37   H25   1.104761 S    
O25   Cr1   2.122348 S    
C38   H30   1.109317 S    
C88   H96   1.111441 S    
C63   C71   1.571018 S    
C21   C118  1.492784 S    
C61   C69   1.570998 S    
C57   C69   1.555527 S    
C14   O34   1.296176 A    
C64   H67   1.095479 S    
C75   C79   1.498380 S    
C12   C71   1.484945 S    
C26   H6    1.090363 S    
C30   H10   1.096710 S    
H59   C66   1.110543 S    
O10   Cr6   2.130580 S    
C110  H137  1.105070 S    
O4    Cr4   2.108595 S    
C30   H14   1.102179 S    
C66   C70   1.514294 S    
H18   C34   1.066639 S    
C64   C72   1.558431 S    
C54   H34   1.065281 S    
C105  H121  1.110342 S    
H88   C84   1.084884 S    
H60   C65   1.109859 S    
C126  H153  1.110842 S    
C34   C42   1.560784 S    
C51   O55   1.436495 S    
