data_str_m3_o40_o41_f0_fof.sym.28
_audit_creation_date              2012-12-10T16:38:02-0500
_audit_creation_method            fapswitch 2.2
_symmetry_space_group_name_H-M    P1
_symmetry_Int_Tables_number       1
_space_group_crystal_system       triclinic
_cell_length_a                    28.12651
_cell_length_b                    18.413247
_cell_length_c                    16.986423
_cell_angle_alpha                 90.27308
_cell_angle_beta                  61.257727
_cell_angle_gamma                 90.48456
_cell_volume                      7713.09852913

loop_
_atom_site_label
_atom_site_type_symbol
_atom_type_description
_atom_site_fract_x
_atom_site_fract_y
_atom_site_fract_z
_atom_type_partial_charge
C1    C     C_R   0.699119 0.262487 0.677269 0.930322
C2    C     C_R   0.095496 0.500629 0.506771 0.067616
C3    C     C_R   0.211282 0.181659 0.888450 0.024985
C4    C     C_R   0.608400 0.315094 0.050686 -0.169923
C5    C     C_R   0.341939 0.595495 0.996647 -0.183206
C6    C     C_R   0.396527 0.309839 0.945431 -0.165933
C7    C     C_R   0.658687 0.594318 0.002498 -0.176269
C8    C     C_R   0.108401 0.815094 0.050684 -0.169932
C9    C     C_R   0.841954 0.095527 0.996621 -0.183185
C10   C     C_R   0.896523 0.809844 0.945430 -0.165912
C11   C     C_R   0.158685 0.094330 0.002501 -0.176267
C12   C     C_R   0.634940 0.294436 0.097773 -0.179073
C13   C     C_R   0.420413 0.001498 0.433483 0.071347
C14   C     C_R   0.312710 0.609707 0.951481 -0.217753
C15   C     C_R   0.371218 0.287980 0.896206 -0.178305
C16   C     C_R   0.688065 0.609981 0.047189 -0.218042
C17   C     C_R   0.134940 0.794432 0.097771 -0.179055
C18   C     C_R   0.812733 0.109755 0.951446 -0.217682
C19   C     C_R   0.871213 0.787986 0.896207 -0.178289
C20   C     C_R   0.188062 0.109995 0.047192 -0.218039
C21   C     C_R   0.734115 0.177755 0.796333 0.355593
C22   C     C_R   0.223371 0.745590 0.236412 0.366685
C23   C     C_R   0.258398 0.186647 0.205685 0.376376
C24   C     C_R   0.595498 0.000629 0.506766 0.067618
C25   C     C_R   0.781204 0.737887 0.756303 0.356688
C26   C     C_R   0.234088 0.677713 0.796351 0.355536
C27   C     C_R   0.723370 0.245585 0.236416 0.366683
C28   C     C_R   0.758400 0.686641 0.205684 0.376377
C29   C     C_R   0.281202 0.237894 0.756305 0.356576
C30   C     C_R   0.767381 0.166547 0.835476 0.382159
C31   C     C_R   0.203989 0.778860 0.184118 0.415896
C32   C     C_R   0.226605 0.179755 0.163298 0.388564
C33   C     C_R   0.803088 0.770141 0.806320 0.424516
C34   C     C_R   0.267345 0.666475 0.835506 0.382354
C35   C     C_R   0.111361 0.375158 0.459611 -0.157912
C36   C     C_R   0.703985 0.278859 0.184129 0.415908
C37   C     C_R   0.726608 0.679744 0.163295 0.388558
C38   C     C_R   0.303090 0.270147 0.806317 0.424528
C39   C     C_R   0.078163 0.094163 0.931043 0.985306
C40   C     C_R   0.930172 0.894590 0.061960 0.904497
C41   C     C_R   0.922016 0.094296 0.068965 0.984493
C42   C     C_R   0.070874 0.895578 0.936846 0.903717
C43   C     C_R   0.578164 0.594160 0.931042 0.985321
C44   C     C_R   0.430173 0.394590 0.061960 0.904486
C45   C     C_R   0.422013 0.594292 0.068967 0.984502
C46   C     C_R   0.924327 0.632502 0.428406 -0.087552
C47   C     C_R   0.570872 0.395577 0.936847 0.903716
C48   C     C_R   0.541489 0.131241 0.515810 -0.059447
C49   C     C_R   0.473869 0.870324 0.423388 -0.084489
C50   C     C_R   0.464445 0.133846 0.454677 -0.065719
C51   C     C_R   0.564071 0.871723 0.452667 -0.056311
C52   C     C_R   0.041489 0.631242 0.515810 -0.059452
C53   C     C_R   0.973866 0.370323 0.423398 -0.084528
C54   C     C_R   0.964446 0.633846 0.454676 -0.065720
C55   C     C_R   0.064066 0.371722 0.452679 -0.056359
C56   C     C_R   0.518777 0.197931 0.510163 0.358450
C57   C     C_R   0.927871 0.371487 0.411494 -0.141341
C58   C     C_R   0.500329 0.804643 0.420198 0.289575
C59   C     C_R   0.482088 0.199555 0.475932 0.363633
C60   C     C_R   0.545054 0.805315 0.435793 0.284750
C61   C     C_R   0.018778 0.697932 0.510161 0.358444
C62   C     C_R   0.000322 0.304641 0.420218 0.289670
C63   C     C_R   0.982089 0.699555 0.475930 0.363624
C64   C     C_R   0.045047 0.305313 0.435811 0.284748
C65   C     C_R   0.486031 0.067500 0.462586 -0.026486
C66   C     C_R   0.536028 0.936152 0.461135 -0.014163
C67   C     C_R   0.526836 0.066738 0.487799 -0.024442
C68   C     C_R   0.079325 0.627674 0.547226 -0.081791
C69   C     C_R   0.492027 0.935903 0.443721 -0.026003
C70   C     C_R   0.986030 0.567499 0.462588 -0.026483
C71   C     C_R   0.036025 0.436151 0.461143 -0.014147
C72   C     C_R   0.026835 0.566738 0.487801 -0.024446
C73   C     C_R   0.992024 0.435903 0.443727 -0.026031
C74   C     C_R   0.966845 0.501707 0.444832 0.045414
C75   C     C_R   0.052483 0.501113 0.485959 0.043540
C76   C     C_R   0.466847 0.001708 0.444829 0.045408
C77   C     C_R   0.552485 0.001113 0.485954 0.043532
C78   C     C_R   0.897244 0.435233 0.426860 0.026416
C79   C     C_R   0.611365 0.875160 0.459601 -0.157915
C80   C     C_R   0.110761 0.564860 0.534577 0.038778
C81   C     C_R   0.124946 0.436643 0.495489 0.038292
C82   C     C_R   0.896023 0.567495 0.432516 0.029533
C83   C     C_R   0.397245 0.935233 0.426858 0.026424
C84   C     C_R   0.610762 0.064860 0.534575 0.038791
C85   C     C_R   0.624948 0.936644 0.495483 0.038287
C86   C     C_R   0.396023 0.067495 0.432516 0.029534
C87   C     C_R   0.843878 0.435260 0.437481 -0.117726
C88   C     C_R   0.158531 0.564416 0.544630 -0.106794
C89   C     C_R   0.166955 0.436858 0.520204 -0.110226
C90   C     C_R   0.424327 0.132502 0.428407 -0.087553
C91   C     C_R   0.843486 0.565838 0.439271 -0.104002
C92   C     C_R   0.343878 0.935260 0.437480 -0.117729
C93   C     C_R   0.658531 0.064416 0.544629 -0.106804
C94   C     C_R   0.666956 0.936858 0.520201 -0.110218
C95   C     C_R   0.343486 0.065838 0.439272 -0.104005
C96   C     C_R   0.819464 0.500287 0.438220 -0.249190
C97   C     C_R   0.182238 0.499952 0.545583 -0.261222
C98   C     C_R   0.319464 0.000287 0.438221 -0.249191
C99   C     C_R   0.682239 0.999952 0.545582 -0.261233
C100  C     C_3   0.859447 0.183743 0.755244 0.080427
C101  C     C_R   0.427873 0.871488 0.411489 -0.141352
C102  C     C_3   0.863167 0.233019 0.679712 -0.320144
C103  C     C_3   0.910300 0.286619 0.649797 -0.870036
C104  C     C_3   0.200993 0.901821 0.165586 0.069248
C105  C     C_3   0.247521 0.926836 0.182802 -0.336282
C106  C     C_3   0.282473 0.984703 0.115226 -0.851479
C107  C     C_3   0.140879 0.227486 0.207717 0.186137
C108  C     C_3   0.158919 0.304195 0.220406 -0.446627
C109  C     C_3   0.124557 0.363006 0.209614 -0.891709
C110  C     C_3   0.809466 0.893327 0.820010 0.062107
C111  C     C_3   0.765429 0.920066 0.797965 -0.317714
C112  C     C_R   0.295394 0.726805 0.325122 0.944066
C113  C     C_R   0.579325 0.127673 0.547226 -0.081787
C114  C     C_3   0.725051 0.969393 0.872002 -0.849908
C115  C     C_3   0.359419 0.683591 0.755238 0.080300
C116  C     C_3   0.363126 0.732884 0.679727 -0.320117
C117  C     C_3   0.410324 0.786395 0.649704 -0.869672
C118  C     C_3   0.700979 0.401822 0.165620 0.069251
C119  C     C_3   0.747509 0.426834 0.182833 -0.336279
C120  C     C_3   0.782465 0.484695 0.115251 -0.851487
C121  C     C_3   0.640884 0.727479 0.207707 0.186156
C122  C     C_3   0.658925 0.804188 0.220394 -0.446612
C123  C     C_3   0.624566 0.863000 0.209594 -0.891726
C124  C     C_R   0.705081 0.237060 0.964994 -0.011361
C125  C     C_3   0.309534 0.393329 0.819936 0.062031
C126  C     C_3   0.265579 0.420166 0.797746 -0.317419
C127  C     C_3   0.225058 0.469270 0.871911 -0.850030
C128  C     C_R   0.261865 0.701258 0.060160 -0.010736
C129  C     C_R   0.298105 0.234746 0.029331 -0.011486
C130  C     C_R   0.742703 0.696227 0.932602 -0.009502
C131  C     C_R   0.205071 0.737034 0.965001 -0.011395
C132  C     C_R   0.761875 0.201281 0.060152 -0.010750
C133  C     C_R   0.798107 0.734737 0.029328 -0.011487
C134  C     C_R   0.242699 0.196242 0.932607 -0.009512
C135  C     C_R   0.750563 0.190327 0.924910 -0.156442
C136  C     C_R   0.300578 0.263086 0.322348 0.902463
C137  C     C_R   0.217108 0.748650 0.099123 -0.152562
C138  C     C_R   0.250224 0.192607 0.070140 -0.173705
C139  C     C_R   0.788941 0.741943 0.892362 -0.153363
C140  C     C_R   0.250542 0.690279 0.924929 -0.156453
C141  C     C_R   0.717111 0.248663 0.099124 -0.152566
C142  C     C_R   0.750227 0.692594 0.070137 -0.173700
C143  C     C_R   0.288940 0.241953 0.892363 -0.153342
C144  C     C_R   0.776138 0.167981 0.976465 0.121389
C145  C     C_R   0.186248 0.761759 0.054205 0.098512
C146  C     C_R   0.226534 0.166583 0.017935 0.111925
C147  C     C_R   0.705222 0.725578 0.674242 0.970221
C148  C     C_R   0.819309 0.756073 0.938469 0.100740
C149  C     C_R   0.276119 0.667938 0.976485 0.121402
C150  C     C_R   0.686252 0.261774 0.054205 0.098500
C151  C     C_R   0.726538 0.666568 0.017931 0.111932
C152  C     C_R   0.319310 0.256079 0.938469 0.100748
C153  C     C_R   0.631799 0.304491 0.957310 0.054545
C154  C     C_R   0.337083 0.639853 0.068423 0.072234
C155  C     C_R   0.371168 0.301089 0.039418 0.053887
C156  C     C_R   0.664894 0.636947 0.928781 0.062236
C157  C     C_R   0.131798 0.804485 0.957310 0.054554
C158  C     C_R   0.199117 0.762483 0.677269 0.930360
C159  C     C_R   0.837091 0.139871 0.068411 0.072222
C160  C     C_R   0.871167 0.801088 0.039416 0.053882
C161  C     C_R   0.164890 0.136959 0.928786 0.062219
C162  C     C_R   0.607931 0.332356 0.905968 -0.218487
C163  C     C_R   0.373190 0.638022 0.106679 -0.220660
C164  C     C_R   0.393636 0.330431 0.092195 -0.218410
C165  C     C_R   0.627935 0.636528 0.892323 -0.217392
C166  C     C_R   0.107932 0.832355 0.905967 -0.218494
C167  C     C_R   0.873194 0.138031 0.106674 -0.220648
C168  C     C_R   0.893635 0.830431 0.092194 -0.218413
C169  C     C_R   0.795394 0.226805 0.325122 0.944064
C170  C     C_R   0.127933 0.136535 0.892326 -0.217397
C171  C     C_R   0.622945 0.303043 0.821269 0.304936
C172  C     C_R   0.362667 0.679836 0.181074 0.280478
C173  C     C_R   0.377363 0.302216 0.177684 0.306901
C174  C     C_R   0.638667 0.678273 0.818180 0.277833
C175  C     C_R   0.122944 0.803042 0.821268 0.304925
C176  C     C_R   0.862669 0.179839 0.181075 0.280478
C177  C     C_R   0.877363 0.802215 0.177683 0.306899
C178  C     C_R   0.138664 0.178279 0.818182 0.277836
C179  C     C_R   0.670550 0.262692 0.777269 -0.152915
C180  C     C_R   0.800578 0.763086 0.322347 0.902457
C181  C     C_R   0.310816 0.705967 0.232742 -0.173092
C182  C     C_R   0.328468 0.263553 0.222173 -0.155745
C183  C     C_R   0.691042 0.702742 0.764882 -0.178125
C184  C     C_R   0.170546 0.762684 0.777271 -0.152887
C185  C     C_R   0.810817 0.205968 0.232742 -0.173089
C186  C     C_R   0.828468 0.763552 0.222172 -0.155743
C187  C     C_R   0.191039 0.202749 0.764886 -0.178110
C188  C     C_R   0.694704 0.233328 0.828200 -0.155164
C189  C     C_R   0.274986 0.712426 0.193874 -0.168004
C190  C     C_R   0.303396 0.235458 0.171072 -0.162527
C191  C     C_R   0.205220 0.225580 0.674243 0.970215
C192  C     C_R   0.728445 0.706842 0.800892 -0.165557
C193  C     C_R   0.194693 0.733307 0.828207 -0.155154
C194  C     C_R   0.774988 0.212429 0.193873 -0.168002
C195  C     C_R   0.803397 0.735454 0.171071 -0.162520
C196  C     C_R   0.228441 0.206854 0.800897 -0.165435
C197  C     C_R   0.691336 0.129202 0.533559 0.901789
C198  C     C_R   0.309032 0.870437 0.463156 0.869738
C199  C     C_R   0.308763 0.129587 0.463901 0.895204
C200  C     C_R   0.695534 0.872111 0.520176 0.883912
C201  C     C_R   0.191336 0.629202 0.533559 0.901817
C202  C     C_R   0.920413 0.501498 0.433485 0.071345
C203  C     C_R   0.809032 0.370437 0.463157 0.869724
C204  C     C_R   0.808763 0.629587 0.463901 0.895194
C205  C     C_R   0.195534 0.372111 0.520178 0.883916
C206  C     C_R   0.677599 0.258848 0.916320 0.015916
C207  C     C_R   0.292378 0.686599 0.106044 0.024050
C208  C     C_R   0.324077 0.257362 0.080266 0.008221
C209  C     C_R   0.711286 0.681644 0.888445 0.024968
C210  C     C_R   0.177592 0.758830 0.916324 0.015905
C211  C     C_R   0.792385 0.186615 0.106037 0.024042
C212  C     C_R   0.824078 0.757357 0.080264 0.008214
Cl1   Cl    Cl    0.073512 0.221714 0.443152 -0.521501
Cl2   Cl    Cl    0.415567 0.704591 0.205760 -0.545834
Cl3   Cl    Cl    0.421739 0.308324 0.224734 -0.565095
Cl4   Cl    Cl    0.585384 0.705408 0.796247 -0.552940
Cl5   Cl    Cl    0.078291 0.808833 0.774848 -0.560474
Cl6   Cl    Cl    0.915568 0.204589 0.205765 -0.545844
Cl7   Cl    Cl    0.921739 0.808323 0.224732 -0.565086
Cl8   Cl    Cl    0.085382 0.205408 0.796244 -0.552930
Cl9   Cl    Cl    0.734998 0.108460 0.722934 -0.600857
Cl10  Cl    Cl    0.170999 0.712342 0.339244 -0.539339
Cl11  Cl    Cl    0.250807 0.114425 0.279338 -0.576282
Cl12  Cl    Cl    0.955921 0.784147 0.465943 -0.445806
Cl13  Cl    Cl    0.830810 0.705574 0.651142 -0.531595
Cl14  Cl    Cl    0.234966 0.608443 0.722928 -0.601010
Cl15  Cl    Cl    0.671001 0.212327 0.339246 -0.539355
Cl16  Cl    Cl    0.750807 0.614424 0.279343 -0.576293
Cl17  Cl    Cl    0.330805 0.205572 0.651146 -0.531579
Cl18  Cl    Cl    0.976810 0.220565 0.400451 -0.535125
Cl19  Cl    Cl    0.037969 0.780621 0.541148 -0.452190
Cl20  Cl    Cl    0.573520 0.721716 0.443133 -0.521577
Cl21  Cl    Cl    0.455918 0.284147 0.465950 -0.445830
Cl22  Cl    Cl    0.476822 0.720568 0.400420 -0.535181
Cl23  Cl    Cl    0.537968 0.280620 0.541152 -0.452210
Cl24  Cl    Cl    0.578290 0.308828 0.774850 -0.560492
H1    H     H_    0.778881 0.499853 0.446004 0.213102
H2    H     H_    0.415212 0.182498 0.406124 0.227288
H3    H     H_    0.416382 0.822782 0.389281 0.237856
H4    H     H_    0.583714 0.174093 0.582093 0.221264
H5    H     H_    0.567850 0.335637 0.090377 0.206337
H6    H     H_    0.366410 0.547322 0.975242 0.181491
H7    H     H_    0.437408 0.330661 0.907589 0.205493
H8    H     H_    0.632114 0.547881 0.027464 0.186498
H9    H     H_    0.067853 0.835643 0.090375 0.206341
H10   H     H_    0.866423 0.047353 0.975208 0.181504
H11   H     H_    0.937403 0.830671 0.907586 0.205496
H12   H     H_    0.215897 0.499748 0.559949 0.216213
H13   H     H_    0.132114 0.047891 0.027466 0.186498
H14   H     H_    0.613333 0.302163 0.169548 0.228430
H15   H     H_    0.318233 0.572243 0.898932 0.191831
H16   H     H_    0.393856 0.294748 0.824344 0.229358
H17   H     H_    0.679860 0.577841 0.105562 0.186105
H18   H     H_    0.113335 0.802165 0.169546 0.228433
H19   H     H_    0.818265 0.072305 0.898879 0.191813
H20   H     H_    0.893845 0.794765 0.824344 0.229342
H21   H     H_    0.179859 0.077854 0.105564 0.186112
H22   H     H_    0.897838 0.152880 0.729456 0.198601
H23   H     H_    0.278881 0.999853 0.446005 0.213103
H24   H     H_    0.856572 0.217286 0.812111 0.139403
H25   H     H_    0.868617 0.199336 0.621522 0.271057
H26   H     H_    0.825284 0.264687 0.703539 0.207173
H27   H     H_    0.909635 0.324545 0.599880 0.270586
H28   H     H_    0.949486 0.257281 0.618912 0.299625
H29   H     H_    0.906564 0.319007 0.707808 0.256148
H30   H     H_    0.171582 0.946992 0.184105 0.190331
H31   H     H_    0.216316 0.892110 0.092614 0.132369
H32   H     H_    0.230415 0.948920 0.252046 0.274897
H33   H     H_    0.274170 0.880569 0.176528 0.204516
H34   H     H_    0.715896 0.999748 0.559950 0.216207
H35   H     H_    0.301873 0.962121 0.046049 0.249854
H36   H     H_    0.314830 0.003259 0.130473 0.290839
H37   H     H_    0.257425 0.031929 0.118577 0.270394
H38   H     H_    0.097878 0.219495 0.259020 0.234483
H39   H     H_    0.140699 0.224794 0.142762 0.142459
H40   H     H_    0.155966 0.308059 0.287488 0.244445
H41   H     H_    0.201712 0.315322 0.169937 0.211961
H42   H     H_    0.135385 0.416789 0.226587 0.270894
H43   H     H_    0.080789 0.352760 0.254404 0.271070
H44   H     H_    0.132266 0.364368 0.139063 0.266862
H45   H     H_    0.138261 0.330257 0.431034 0.207016
H46   H     H_    0.840240 0.937248 0.802364 0.184798
H47   H     H_    0.792317 0.884982 0.893628 0.131311
H48   H     H_    0.784843 0.949948 0.733159 0.270967
H49   H     H_    0.742182 0.873875 0.790969 0.211940
H50   H     H_    0.704030 0.939274 0.936498 0.242884
H51   H     H_    0.694060 0.988224 0.854180 0.298162
H52   H     H_    0.746127 0.017257 0.880834 0.277575
H53   H     H_    0.397800 0.652693 0.729410 0.198590
H54   H     H_    0.356583 0.717123 0.812089 0.139428
H55   H     H_    0.368493 0.699206 0.621570 0.271007
H56   H     H_    0.915212 0.682497 0.406124 0.227288
H57   H     H_    0.325265 0.764632 0.703622 0.207066
H58   H     H_    0.409648 0.824349 0.599820 0.270557
H59   H     H_    0.449485 0.756981 0.618739 0.299696
H60   H     H_    0.406675 0.818766 0.707680 0.256099
H61   H     H_    0.671566 0.446991 0.184152 0.190336
H62   H     H_    0.716299 0.392121 0.092647 0.132373
H63   H     H_    0.730404 0.448922 0.252075 0.274888
H64   H     H_    0.774156 0.380565 0.176563 0.204520
H65   H     H_    0.801864 0.462108 0.046076 0.249849
H66   H     H_    0.814822 0.503251 0.130496 0.290842
H67   H     H_    0.916381 0.322782 0.389286 0.237851
H68   H     H_    0.757419 0.531922 0.118595 0.270396
H69   H     H_    0.597882 0.719490 0.259009 0.234496
H70   H     H_    0.640705 0.724784 0.142752 0.142457
H71   H     H_    0.655969 0.808055 0.287477 0.244450
H72   H     H_    0.701719 0.815312 0.169926 0.211955
H73   H     H_    0.635396 0.916783 0.226562 0.270886
H74   H     H_    0.580797 0.852757 0.254384 0.271082
H75   H     H_    0.632276 0.864357 0.139042 0.266862
H76   H     H_    0.340340 0.437196 0.802354 0.184630
H77   H     H_    0.292324 0.384985 0.893567 0.131330
H78   H     H_    0.083715 0.674094 0.582092 0.221266
H79   H     H_    0.285058 0.450254 0.733092 0.270964
H80   H     H_    0.242444 0.374015 0.790373 0.212184
H81   H     H_    0.203978 0.438950 0.936245 0.242910
H82   H     H_    0.194126 0.488168 0.853985 0.298237
H83   H     H_    0.246021 0.517099 0.881101 0.277413
H84   H     H_    0.638267 0.830259 0.431025 0.207015
O1    O     O_R   0.746490 0.236330 0.638080 -0.608312
O2    O     O_R   0.325830 0.813840 0.483730 -0.631720
O3    O     O_R   0.325830 0.186160 0.483730 -0.590888
O4    O     O_R   0.674170 0.813840 0.516270 -0.620290
O5    O     O_R   0.174170 0.686160 0.516270 -0.595816
O6    O     O_R   0.825830 0.313840 0.483730 -0.631717
O7    O     O_R   0.825830 0.686160 0.483730 -0.590894
O8    O     O_R   0.174170 0.313840 0.516270 -0.620294
O9    O     O_R   0.739960 0.127620 0.525000 -0.593543
O10   O     O_R   0.260040 0.872380 0.475000 -0.618683
O11   O     O_R   0.260040 0.127620 0.475000 -0.603800
O12   O     O_R   0.253510 0.763670 0.361920 -0.603619
O13   O     O_R   0.739960 0.872380 0.525000 -0.622897
O14   O     O_R   0.239960 0.627620 0.525000 -0.593547
O15   O     O_R   0.760040 0.372380 0.475000 -0.618690
O16   O     O_R   0.760040 0.627620 0.475000 -0.603803
O17   O     O_R   0.239960 0.372380 0.525000 -0.622904
O18   O     O_R   0.680700 0.294870 0.629350 -0.560192
O19   O     O_R   0.319300 0.705130 0.370650 -0.564292
O20   O     O_R   0.319300 0.294870 0.370650 -0.569642
O21   O     O_R   0.680700 0.705130 0.629350 -0.559848
O22   O     O_R   0.180700 0.794870 0.629350 -0.560190
O23   O     O_R   0.253510 0.236330 0.361920 -0.596089
O24   O     O_R   0.819300 0.205130 0.370650 -0.564287
O25   O     O_R   0.819300 0.794870 0.370650 -0.569640
O26   O     O_R   0.180700 0.205130 0.629350 -0.559839
O27   O     O_R   0.062020 0.072840 0.007170 -0.639173
O28   O     O_R   0.937980 0.927160 0.992830 -0.659106
O29   O     O_R   0.937980 0.072840 0.992830 -0.641567
O30   O     O_R   0.062020 0.927160 0.007170 -0.659937
O31   O     O_R   0.562020 0.572840 0.007170 -0.639170
O32   O     O_R   0.437980 0.427160 0.992830 -0.659114
O33   O     O_R   0.437980 0.572840 0.992830 -0.641558
O34   O     O_R   0.746490 0.763670 0.638080 -0.607597
O35   O     O_R   0.562020 0.427160 0.007170 -0.659938
O36   O     O_R   0.947860 0.073950 0.109290 -0.544840
O37   O     O_R   0.052140 0.926050 0.890710 -0.561236
O38   O     O_R   0.052140 0.073950 0.890710 -0.551493
O39   O     O_R   0.947860 0.926050 0.109290 -0.558416
O40   O     O_R   0.447860 0.573950 0.109290 -0.544838
O41   O     O_R   0.552140 0.426050 0.890710 -0.561243
O42   O     O_R   0.552140 0.573950 0.890710 -0.551494
O43   O     O_R   0.447860 0.426050 0.109290 -0.558422
O44   O     O_3   0.816437 0.132489 0.782913 -0.629209
O45   O     O_R   0.246490 0.736330 0.638080 -0.608339
O46   O     O_3   0.172878 0.840656 0.218761 -0.604824
O47   O     O_3   0.171132 0.169544 0.217619 -0.590004
O48   O     O_3   0.836218 0.830525 0.769713 -0.599504
O49   O     O_3   0.316383 0.632371 0.782958 -0.629248
O50   O     O_3   0.672869 0.340649 0.218784 -0.604821
O51   O     O_3   0.671135 0.669537 0.217614 -0.590005
O52   O     O_3   0.336255 0.330497 0.769678 -0.599488
O53   O     O_R   0.753510 0.263670 0.361920 -0.603627
O54   O     O_R   0.753510 0.736330 0.361920 -0.596087
O55   O     O_R   0.246490 0.263670 0.638080 -0.607645
O56   O     O_R   0.674170 0.186160 0.516270 -0.595809
Zn1   Zn    Zn3+2 0.792340 0.208750 0.507670 1.099693
Zn2   Zn    Zn3+2 0.494040 0.500000 0.919480 1.053226
Zn3   Zn    Zn3+2 0.005960 0.000000 0.080520 1.071987
Zn4   Zn    Zn3+2 0.994040 0.000000 0.919480 1.053258
Zn5   Zn    Zn3+2 0.207660 0.791250 0.492330 1.143236
Zn6   Zn    Zn3+2 0.207660 0.208750 0.492330 1.148275
Zn7   Zn    Zn3+2 0.792340 0.791250 0.507670 1.139521
Zn8   Zn    Zn3+2 0.292340 0.708750 0.507670 1.099589
Zn9   Zn    Zn3+2 0.707660 0.291250 0.492330 1.143222
Zn10  Zn    Zn3+2 0.707660 0.708750 0.492330 1.148267
Zn11  Zn    Zn3+2 0.292340 0.291250 0.507670 1.139475
Zn12  Zn    Zn3+2 0.505960 0.500000 0.080520 1.071978

loop_
_geom_bond_atom_site_label_1
_geom_bond_atom_site_label_2
_ccdc_geom_bond_type
C132  C144  A    
C126  C127  S    
C111  H48   S    
C119  H64   S    
C136  O23   A    
O14   Zn8   S    
C28   Cl16  S    
C126  H80   S    
C109  H42   S    
C33   O48   S    
C105  H32   S    
C132  C211  A    
C11   H13   S    
C21   Cl9   S    
C170  C178  A    
C50   C59   A    
C52   C61   A    
O28   Zn4   S    
C54   C63   A    
C58   C60   A    
C184  C193  A    
C28   C195  A    
C159  C211  A    
C108  C109  S    
C39   O38   A    
C96   H1    S    
C61   C63   A    
C110  C111  S    
C62   C64   A    
C131  C140  A    
C134  C143  A    
C42   O30   A    
C107  O47   S    
C50   C90   A    
C89   C205  S    
C162  C171  A    
C118  O50   S    
C70   C74   A    
C102  H26   S    
C56   Cl23  S    
C4    C12   A    
C107  H39   S    
C24   C85   A    
C88   C97   A    
O30   Zn3   S    
C4    C153  A    
O5    Zn5   S    
C49   C69   A    
C40   O39   A    
C175  Cl5   S    
C172  Cl2   S    
C8    C157  A    
C104  C105  S    
C139  C148  A    
C205  O8    A    
C116  H57   S    
O16   Zn10  S    
C37   C142  A    
C90   H2    S    
C12   C150  A    
C129  C152  A    
C86   C90   A    
C71   C73   A    
C14   H15   S    
C108  H40   S    
C82   C91   A    
C51   C66   A    
C142  C151  A    
O33   Zn2   S    
C52   C72   A    
O21   Zn10  S    
C16   H17   S    
C154  C163  A    
O45   Zn8   S    
C54   C70   A    
C131  C210  A    
C164  C173  A    
C9    H10   S    
C8    H9    S    
C18   H19   S    
C20   C146  A    
C112  O19   A    
C10   C160  A    
C120  H65   S    
C79   C85   A    
C109  H44   S    
C105  C106  S    
C137  C145  A    
C66   C77   A    
C121  H69   S    
C124  C135  A    
C156  C209  A    
C57   C78   A    
C41   O29   A    
C8    C17   A    
C25   C192  A    
C200  O4    A    
C191  O55   A    
C117  H58   S    
C99   H34   S    
C19   C148  A    
C56   C59   A    
O36   Zn3   S    
C45   C163  S    
C80   C88   A    
C27   Cl15  S    
C33   C139  A    
C14   C149  A    
C34   C140  A    
C159  C167  A    
C16   C151  A    
C84   C93   A    
C160  C168  A    
C48   C67   A    
C86   C95   A    
C24   C77   A    
O8    Zn6   S    
C121  O51   S    
C2    C81   A    
C182  C190  A    
C55   C71   A    
C2    C75   A    
C5    C154  A    
C78   C87   A    
C38   C143  A    
C67   C77   A    
O29   Zn4   S    
O19   Zn8   S    
C198  O2    A    
C114  H52   S    
C197  O9    A    
C133  C142  A    
C117  H59   S    
C173  Cl3   S    
C189  C207  A    
C127  H82   S    
C115  C116  S    
C69   C76   A    
C85   C94   A    
C25   Cl13  S    
C30   O44   S    
C46   C82   A    
C47   C162  S    
C203  O15   A    
C172  C181  A    
C7    C156  A    
C62   Cl18  S    
C29   C38   A    
C107  C108  S    
C37   O51   S    
C123  H74   S    
C91   C204  S    
C20   H21   S    
C103  H29   S    
C91   C96   A    
C106  H35   S    
C45   O33   A    
C87   C96   A    
O22   Zn5   S    
C122  H72   S    
C171  C179  A    
C59   Cl21  S    
C106  H37   S    
C177  Cl7   S    
C72   C75   A    
C92   C198  S    
O7    Zn7   S    
C141  C150  A    
C111  H49   S    
C17   H18   S    
C118  H62   S    
C64   Cl1   S    
C129  C208  A    
C3    C161  A    
C114  H50   S    
C165  C174  A    
C125  H76   S    
C93   C197  S    
C32   C138  A    
C19   H20   S    
C199  O3    A    
C115  H54   S    
O26   Zn6   S    
C27   C194  A    
C180  C186  S    
C201  O14   A    
O34   Zn7   S    
C23   Cl11  S    
O9    Zn1   S    
C31   C137  A    
C108  H41   S    
C58   Cl22  S    
C21   C188  A    
O25   Zn7   S    
C203  O6    A    
C132  C141  A    
C83   C101  A    
O3    Zn11  S    
C6    C155  A    
C119  H63   S    
C112  C181  S    
C110  H46   S    
O20   Zn11  S    
C205  O17   A    
C3    C134  A    
C29   Cl17  S    
C195  C212  A    
C57   H67   S    
O6    Zn1   S    
C193  C210  A    
C28   C37   A    
C138  C146  A    
O2    Zn8   S    
C131  C145  A    
C174  Cl4   S    
C79   H84   S    
C102  C103  S    
C50   C65   A    
C51   C79   A    
C9    C18   A    
C136  C182  S    
C48   C113  A    
C130  C209  A    
C176  Cl6   S    
C51   C60   A    
C1    O18   A    
C115  O49   S    
C140  C149  A    
C23   C190  A    
C204  O16   A    
C25   C33   A    
C98   H23   S    
C187  C196  A    
C101  H3    S    
C38   O52   S    
C73   C74   A    
C197  O56   A    
C104  H31   S    
C185  C194  A    
O39   Zn3   S    
C183  C192  A    
C176  C185  A    
C40   O28   A    
C22   Cl10  S    
C188  C206  A    
C166  C175  A    
C121  H70   S    
C65   C76   A    
C178  Cl8   S    
C49   C101  A    
O38   Zn4   S    
O17   Zn11  S    
C15   H16   S    
C168  C177  A    
C11   C161  A    
C12   H14   S    
C120  H66   S    
C15   C152  A    
C169  O53   A    
C181  C189  A    
C113  H4    S    
C127  H83   S    
C65   C67   A    
C180  O54   A    
C7    H8    S    
C103  H28   S    
C5    H6    S    
C93   C99   A    
C81   C89   A    
O27   Zn3   S    
O12   Zn5   S    
C134  C146  A    
C130  C139  A    
C87   C203  S    
C126  H79   S    
C109  H43   S    
C43   C165  S    
C105  H33   S    
C11   C20   A    
C100  H22   S    
C95   C98   A    
C155  C208  A    
C53   C57   A    
C74   C202  A    
C35   H45   S    
C17   C145  A    
C36   C141  A    
C158  O22   A    
C43   O31   A    
C10   C19   A    
C36   O50   S    
O42   Zn2   S    
C102  H25   S    
C123  H73   S    
C46   H56   S    
C22   C189  A    
C5    C14   A    
C125  O52   S    
C178  C187  A    
C7    C16   A    
C147  O34   A    
O31   Zn12  S    
C82   C202  A    
C124  C150  A    
C60   Cl20  S    
O43   Zn12  S    
C47   O41   A    
C204  O7    A    
C201  O5    A    
C174  C183  A    
C1    O1    A    
C119  C120  S    
C200  O13   A    
C179  C188  A    
C27   C36   A    
C21   C30   A    
C13   C83   A    
C3    C196  A    
C153  C162  A    
O11   Zn6   S    
C23   C32   A    
C18   C144  A    
C127  H81   S    
C156  C165  A    
C26   Cl14  S    
C39   O27   A    
C61   Cl19  S    
O41   Zn2   S    
C111  C114  S    
C94   C200  S    
C192  C209  A    
C100  O44   S    
C177  C186  A    
C66   C69   A    
C128  C149  A    
C30   C135  A    
C130  C151  A    
C169  O24   A    
C44   C164  S    
C136  O20   A    
C26   C193  A    
C158  C184  S    
C120  H68   S    
O23   Zn6   S    
C42   C166  S    
C175  C184  A    
C43   O42   A    
C68   C80   A    
C100  H24   S    
C106  H36   S    
C84   C113  A    
C44   O32   A    
C45   O40   A    
C97   H12   S    
C35   C81   A    
C41   O36   A    
C92   C98   A    
C199  O11   A    
C83   C92   A    
O35   Zn12  S    
O54   Zn10  S    
C191  O26   A    
C104  H30   S    
C39   C170  S    
C114  H51   S    
O10   Zn5   S    
C9    C159  A    
O15   Zn9   S    
C42   O37   A    
C116  C117  S    
C44   O43   A    
C107  H38   S    
C118  C119  S    
C194  C211  A    
C26   C34   A    
C129  C138  A    
C13   C86   A    
C115  H53   S    
O55   Zn11  S    
C128  C207  A    
O1    Zn1   S    
C88   C201  S    
O53   Zn9   S    
C187  C191  S    
C52   C68   A    
C6    C15   A    
C157  C210  A    
C104  O46   S    
C46   C54   A    
C31   O46   S    
C171  Cl24  S    
C160  C212  A    
C110  O48   S    
O37   Zn4   S    
C22   C31   A    
C117  H60   S    
C35   C55   A    
O56   Zn9   S    
C186  C195  A    
C125  H77   S    
C110  H47   S    
C49   C58   A    
C89   C97   A    
O18   Zn9   S    
C198  O10   A    
C128  C137  A    
C163  C172  A    
C32   O47   S    
C53   C62   A    
C13   C76   A    
C55   C64   A    
C100  C102  S    
C121  C122  S    
C68   H78   S    
C133  C148  A    
C34   O49   S    
O4    Zn10  S    
C180  O25   A    
C161  C170  A    
C190  C208  A    
C135  C144  A    
C122  H71   S    
C6    H7    S    
C158  O45   A    
C4    H5    S    
C47   O35   A    
C147  C183  S    
C48   C56   A    
C143  C152  A    
C118  H61   S    
C124  C206  A    
C63   Cl12  S    
C53   C73   A    
C78   C202  A    
O24   Zn1   S    
O13   Zn7   S    
C157  C166  A    
C173  C182  A    
C123  H75   S    
C10   H11   S    
C155  C164  A    
C29   C196  A    
C116  H55   S    
O32   Zn2   S    
C24   C84   A    
C169  C185  S    
C71   C75   A    
C1    C179  S    
C125  C126  S    
C94   C99   A    
C41   C167  S    
C40   C168  S    
C2    C80   A    
C112  O12   A    
C153  C206  A    
C95   C199  S    
O40   Zn12  S    
C133  C212  A    
C103  H27   S    
C70   C72   A    
C122  C123  S    
C154  C207  A    
C167  C176  A    
C147  O21   A    
