data_str_m4_o2_o17_f0_acs.sym.37
_audit_creation_date              2012-12-11T15:22:37-0500
_audit_creation_method            fapswitch 2.2
_symmetry_space_group_name_H-M    P1
_symmetry_Int_Tables_number       1
_space_group_crystal_system       triclinic
_cell_length_a                    22.464389
_cell_length_b                    12.937654
_cell_length_c                    26.929251
_cell_angle_alpha                 89.799184
_cell_angle_beta                  90.72058
_cell_angle_gamma                 89.868865
_cell_volume                      7825.93472836

loop_
_atom_site_label
_atom_site_type_symbol
_atom_type_description
_atom_site_fract_x
_atom_site_fract_y
_atom_site_fract_z
_atom_type_partial_charge
C1    C     C_R   0.720806 0.346264 0.178591 0.550527
C2    C     C_R   0.494373 0.254014 0.893613 0.244910
C3    C     C_R   0.009319 0.591955 0.553065 -0.091997
C4    C     C_R   0.502132 0.080126 0.395163 0.264005
C5    C     C_R   0.516481 0.111890 0.609766 0.252937
C6    C     C_R   0.999130 0.576921 0.392876 0.277973
C7    C     C_R   0.000544 0.587780 0.604401 0.252330
C8    C     C_R   0.734672 0.987649 0.378896 0.032115
C9    C     C_R   0.251922 0.944556 0.631018 0.026949
C10   C     C_R   0.239012 0.453144 0.372521 0.036727
C11   C     C_R   0.760235 0.461361 0.626911 0.044698
C12   C     C_R   0.701672 0.907638 0.401041 0.208169
C13   C     C_R   0.018893 0.761613 0.103057 0.243141
C14   C     C_R   0.286917 0.860848 0.614432 0.215407
C15   C     C_R   0.187579 0.420397 0.398350 0.217177
C16   C     C_R   0.784057 0.364204 0.613832 0.211737
C17   C     C_R   0.699352 0.901758 0.453075 -0.122922
C18   C     C_R   0.274091 0.815852 0.567951 -0.127192
C19   C     C_R   0.189587 0.415097 0.449663 -0.124034
C20   C     C_R   0.783544 0.335447 0.563361 -0.129960
C21   C     C_R   0.724437 0.979893 0.482701 -0.057928
C22   C     C_R   0.230222 0.858618 0.536484 -0.056861
C23   C     C_R   0.243077 0.427976 0.475343 -0.051056
C24   C     C_R   0.984690 0.760846 0.895265 0.244360
C25   C     C_R   0.763953 0.406008 0.527298 -0.065463
C26   C     C_R   0.753168 0.062587 0.460025 -0.113646
C27   C     C_R   0.195862 0.940990 0.553592 -0.118577
C28   C     C_R   0.296026 0.441672 0.449202 -0.140648
C29   C     C_R   0.742387 0.502547 0.540655 -0.115732
C30   C     C_R   0.763325 0.062145 0.409540 0.225923
C31   C     C_R   0.203450 0.979613 0.601046 0.221983
C32   C     C_R   0.294920 0.456025 0.397095 0.229936
C33   C     C_R   0.736886 0.528349 0.590102 0.223340
C34   C     C_R   0.785068 0.994096 0.559697 -0.118661
C35   C     C_R   0.515937 0.262698 0.050138 0.030992
C36   C     C_R   0.167000 0.838370 0.460432 -0.114279
C37   C     C_R   0.282297 0.486494 0.557356 -0.119727
C38   C     C_R   0.697706 0.368769 0.457885 -0.123033
C39   C     C_R   0.720504 0.345413 0.322471 0.537461
C40   C     C_R   0.278447 0.348444 0.678703 0.534328
C41   C     C_R   0.204546 0.804092 0.326706 0.565092
C42   C     C_R   0.778498 0.849234 0.678824 0.549544
C43   C     C_R   0.797714 0.963267 0.607703 -0.127924
C44   C     C_R   0.162511 0.835290 0.409130 -0.131032
C45   C     C_R   0.289798 0.469368 0.607982 -0.134332
C46   C     C_R   0.503187 0.257397 0.945562 0.034703
C47   C     C_R   0.686698 0.367293 0.407403 -0.115350
C48   C     C_R   0.701379 0.880108 0.612524 -0.101000
C49   C     C_R   0.266276 0.786680 0.404549 -0.132599
C50   C     C_R   0.214132 0.335812 0.604557 -0.125939
C51   C     C_R   0.792816 0.372731 0.392066 -0.085160
C52   C     C_R   0.687727 0.914620 0.564532 -0.110078
C53   C     C_R   0.271990 0.796574 0.455941 -0.123484
C54   C     C_R   0.207787 0.350914 0.553974 -0.115837
C55   C     C_R   0.803868 0.379421 0.443041 -0.098506
C56   C     C_R   0.730990 0.966316 0.536761 0.040858
C57   C     C_R   0.009546 0.762609 0.051246 0.021373
C58   C     C_R   0.222610 0.825702 0.484278 0.046036
C59   C     C_R   0.243742 0.423106 0.529654 0.041887
C60   C     C_R   0.756061 0.377162 0.475797 0.031665
C61   C     C_R   0.757611 0.900624 0.633414 0.026061
C62   C     C_R   0.211918 0.810784 0.380697 0.017014
C63   C     C_R   0.258074 0.389877 0.631131 0.007360
C64   C     C_R   0.733998 0.369066 0.374081 0.054811
C65   C     C_R   0.553528 0.158837 0.321423 0.535860
C66   C     C_R   0.445603 0.159427 0.678360 0.534161
C67   C     C_R   0.052477 0.658613 0.320784 0.537188
C68   C     C_R   0.995171 0.762180 0.946913 0.023457
C69   C     C_R   0.945434 0.659142 0.678026 0.544014
C70   C     C_R   0.730481 0.008016 0.325191 0.583974
C71   C     C_R   0.267549 0.001392 0.676952 0.578028
C72   C     C_R   0.231494 0.501334 0.323210 0.572448
C73   C     C_R   0.768168 0.502089 0.676993 0.598753
C74   C     C_R   0.505671 0.077779 0.104838 -0.192858
C75   C     C_R   0.475870 0.068807 0.899670 -0.182281
C76   C     C_R   0.014336 0.573088 0.102535 -0.191457
C77   C     C_R   0.987543 0.572186 0.896919 -0.190216
C78   C     C_R   0.496193 0.076703 0.053825 0.001384
C79   C     C_R   0.502631 0.168734 0.026078 0.022040
C80   C     C_R   0.484730 0.071207 0.950564 0.001394
C81   C     C_R   0.006514 0.573360 0.051397 -0.000572
C82   C     C_R   0.996483 0.572847 0.947944 0.000871
C83   C     C_R   0.478729 0.980411 0.978447 -0.132606
C84   C     C_R   0.484008 0.983210 0.029843 -0.131162
C85   C     C_R   0.999277 0.479343 0.974203 -0.136442
C86   C     C_R   0.003451 0.479605 0.025692 -0.133137
C87   C     C_3   0.583143 0.115415 0.675312 0.007684
C88   C     C_3   0.646735 0.075531 0.682355 -0.257653
C89   C     C_3   0.681431 0.139754 0.720302 -0.471468
C90   C     C_R   0.496797 0.165981 0.974044 0.025064
C91   C     C_3   0.437240 0.001588 0.341098 0.014682
C92   C     C_3   0.380960 0.992207 0.372554 -0.282998
C93   C     C_3   0.324863 0.005466 0.340605 -0.466273
C94   C     C_3   0.066310 0.512379 0.658400 0.016807
C95   C     C_3   0.079224 0.414018 0.688302 -0.254065
C96   C     C_3   0.130282 0.429975 0.725376 -0.467671
C97   C     C_3   0.949044 0.475887 0.337222 0.018557
C98   C     C_3   0.947968 0.369001 0.313108 -0.261743
C99   C     C_3   0.902798 0.363801 0.270325 -0.470176
C100  C     C_3   0.616535 0.827341 0.374393 0.030461
C101  C     C_R   0.004885 0.668089 0.025390 0.021894
C102  C     C_3   0.593025 0.734936 0.344952 -0.254984
C103  C     C_3   0.525414 0.738854 0.339260 -0.477255
C104  C     C_3   0.387162 0.822412 0.623620 0.026535
C105  C     C_3   0.413005 0.713147 0.621191 -0.269002
C106  C     C_3   0.476368 0.713773 0.601571 -0.494097
C107  C     C_3   0.115203 0.304524 0.374699 0.027663
C108  C     C_3   0.137652 0.250098 0.328072 -0.270551
C109  C     C_3   0.115912 0.138480 0.325620 -0.483640
C110  C     C_3   0.856755 0.251297 0.642656 0.019022
C111  C     C_3   0.878471 0.197704 0.690207 -0.245656
C112  C     C_R   0.280157 0.343992 0.822300 0.543862
C113  C     C_R   0.999165 0.667847 0.973349 0.023895
C114  C     C_3   0.939101 0.146790 0.683236 -0.494263
C115  C     C_3   0.857527 0.104215 0.384856 0.035445
C116  C     C_3   0.896074 0.132343 0.430150 -0.281446
C117  C     C_3   0.961131 0.102846 0.422354 -0.494001
C118  C     C_3   0.116828 0.021775 0.640358 0.039288
C119  C     C_3   0.064445 0.999774 0.604797 -0.269904
C120  C     C_3   0.046773 0.094834 0.574143 -0.416005
C121  C     C_3   0.399776 0.484425 0.393816 0.020046
C122  C     C_3   0.405668 0.591736 0.417571 -0.270199
C123  C     C_3   0.461446 0.597766 0.450066 -0.506769
C124  C     C_R   0.523640 0.352743 0.021449 -0.126251
C125  C     C_3   0.649050 0.616168 0.598453 0.030088
C126  C     C_3   0.626517 0.670815 0.550992 -0.275617
C127  C     C_3   0.593860 0.597966 0.515684 -0.479291
C128  C     C_3   0.551502 0.335012 0.836228 0.007643
C129  C     C_3   0.556567 0.430674 0.803122 -0.254641
C130  C     C_3   0.606779 0.418881 0.765797 -0.470392
C131  C     C_3   0.493520 0.394115 0.154098 0.021949
C132  C     C_3   0.454395 0.469046 0.123895 -0.299864
C133  C     C_3   0.412518 0.529783 0.157164 -0.460649
C134  C     C_3   0.025470 0.883204 0.845276 0.009063
C135  C     C_R   0.517174 0.350199 0.969841 -0.121445
C136  C     C_3   0.010445 0.975716 0.811857 -0.252278
C137  C     C_3   0.064795 0.013111 0.783513 -0.488557
C138  C     C_3   0.977682 0.888296 0.149950 0.009248
C139  C     C_3   0.992055 0.984119 0.180909 -0.251236
C140  C     C_3   0.936658 0.027716 0.205623 -0.483220
C141  C     C_3   0.841296 0.142564 0.940744 0.009864
C142  C     C_3   0.907574 0.135567 0.928312 -0.269901
C143  C     C_3   0.926772 0.225869 0.895702 -0.494624
C144  C     C_3   0.171864 0.147215 0.054033 0.011079
C145  C     C_3   0.107600 0.163287 0.070832 -0.272567
C146  C     C_R   0.007046 0.856034 0.024473 -0.133458
C147  C     C_3   0.100043 0.266496 0.097255 -0.484664
C148  C     C_3   0.358252 0.559985 0.987399 0.008746
C149  C     C_3   0.423646 0.591420 0.991710 -0.255197
C150  C     C_3   0.430426 0.705231 0.004914 -0.504304
C151  C     C_3   0.662193 0.647514 0.059027 0.010773
C152  C     C_3   0.595596 0.642700 0.070364 -0.275328
C153  C     C_3   0.574195 0.740835 0.095895 -0.492365
C154  C     C_R   0.999280 0.855835 0.973007 -0.135497
C155  C     C_R   0.735925 0.964074 0.128173 0.024128
C156  C     C_R   0.261501 0.956445 0.869992 0.027789
C157  C     C_R   0.235395 0.464562 0.129171 0.031017
C158  C     C_R   0.763696 0.462486 0.871655 0.022139
C159  C     C_R   0.791495 0.949874 0.106241 -0.142420
C160  C     C_R   0.220489 0.845273 0.178203 0.553160
C161  C     C_R   0.205095 0.948776 0.891300 -0.137074
C162  C     C_R   0.280986 0.398968 0.113758 -0.160088
C163  C     C_R   0.708082 0.454766 0.894233 -0.146185
C164  C     C_R   0.794997 0.933782 0.055136 -0.073149
C165  C     C_R   0.200046 0.929197 0.942002 -0.076517
C166  C     C_R   0.284698 0.372613 0.063696 -0.093448
C167  C     C_R   0.704746 0.438250 0.945309 -0.072916
C168  C     C_R   0.743088 0.935679 0.025273 0.058262
C169  C     C_R   0.251477 0.920636 0.971996 0.058265
C170  C     C_R   0.243443 0.413504 0.029043 0.026285
C171  C     C_R   0.779249 0.845992 0.821454 0.546242
C172  C     C_R   0.757007 0.434556 0.974669 0.060102
C173  C     C_R   0.687509 0.945333 0.047695 -0.147896
C174  C     C_R   0.307628 0.922340 0.950067 -0.138632
C175  C     C_R   0.196817 0.476178 0.045129 -0.154414
C176  C     C_R   0.812505 0.437843 0.951639 -0.146925
C177  C     C_R   0.553194 0.158288 0.177638 0.546675
C178  C     C_R   0.446805 0.156795 0.822312 0.544739
C179  C     C_R   0.053335 0.657817 0.177560 0.544962
C180  C     C_R   0.947007 0.657468 0.822199 0.551371
C181  C     C_R   0.683907 0.958026 0.098697 -0.133283
C182  C     C_R   0.475808 0.160343 0.871525 -0.010452
C183  C     C_R   0.312587 0.938471 0.899396 -0.127572
C184  C     C_R   0.192704 0.501180 0.094926 -0.121744
C185  C     C_R   0.815805 0.450046 0.900558 -0.132381
C186  C     C_R   0.707770 0.859523 0.945742 -0.165926
C187  C     C_R   0.282171 0.836304 0.050608 -0.179485
C188  C     C_R   0.203642 0.367288 0.945384 -0.166833
C189  C     C_R   0.791598 0.356716 0.054244 -0.166074
C190  C     C_R   0.714650 0.839841 0.895514 -0.141286
C191  C     C_R   0.278006 0.821980 0.101431 -0.151931
C192  C     C_R   0.211185 0.354099 0.894423 -0.142214
C193  C     C_R   0.523548 0.168590 0.128771 -0.016589
C194  C     C_R   0.784832 0.337660 0.104530 -0.143466
C195  C     C_R   0.796145 0.961849 0.893282 -0.112861
C196  C     C_R   0.204978 0.959886 0.105079 -0.108017
C197  C     C_R   0.313185 0.412915 0.903171 -0.095740
C198  C     C_R   0.705371 0.464313 0.106867 -0.108652
C199  C     C_R   0.788462 0.985321 0.943816 0.278757
C200  C     C_R   0.210724 0.978346 0.053807 0.280603
C201  C     C_R   0.306353 0.424577 0.953975 0.264309
C202  C     C_R   0.713361 0.487764 0.056274 0.279034
C203  C     C_R   0.746523 0.927319 0.970779 0.047685
C204  C     C_R   0.977035 0.664660 0.870915 -0.008472
C205  C     C_R   0.247456 0.911538 0.026275 0.049265
C206  C     C_R   0.251596 0.399545 0.975598 0.030388
C207  C     C_R   0.753983 0.427001 0.029241 0.049408
C208  C     C_R   0.760790 0.887045 0.869574 -0.020873
C209  C     C_R   0.237557 0.880724 0.128693 -0.019832
C210  C     C_R   0.266330 0.375807 0.873089 -0.022611
C211  C     C_R   0.739565 0.387293 0.130510 -0.019707
C212  C     C_R   0.524368 0.168246 0.370168 0.017471
C213  C     C_R   0.469246 0.172426 0.628156 0.015777
C214  C     C_R   0.018641 0.666651 0.367506 0.014525
C215  C     C_R   0.024774 0.665551 0.128211 -0.013407
C216  C     C_R   0.971263 0.670549 0.628090 0.015602
C217  C     C_R   0.527603 0.262582 0.395808 -0.187694
C218  C     C_R   0.438950 0.241264 0.596118 -0.173047
C219  C     C_R   0.014364 0.762455 0.391424 -0.191896
C220  C     C_R   0.957050 0.759872 0.600375 -0.179029
C221  C     C_R   0.517112 0.266248 0.446664 -0.152025
C222  C     C_R   0.451983 0.244805 0.545914 -0.146484
C223  C     C_R   0.003555 0.767041 0.442274 -0.140635
C224  C     C_R   0.965563 0.762904 0.549288 -0.141412
C225  C     C_R   0.730757 0.002740 0.179018 0.543263
C226  C     C_R   0.523842 0.263871 0.102086 0.257381
C227  C     C_R   0.268826 0.001205 0.820485 0.543058
C228  C     C_R   0.231249 0.500985 0.179913 0.529754
C229  C     C_R   0.769223 0.502363 0.820962 0.535890
C230  C     C_R   0.503568 0.175520 0.472656 -0.011553
C231  C     C_R   0.494715 0.178107 0.526564 -0.017870
C232  C     C_R   0.993529 0.676002 0.469554 -0.003403
C233  C     C_R   0.989787 0.677514 0.524661 -0.007574
C234  C     C_R   0.494959 0.083221 0.446625 -0.097265
C235  C     C_R   0.527325 0.112396 0.558568 -0.090618
C236  C     C_R   0.987830 0.582296 0.443681 -0.086540
Cr1   Cr    Cr6+3 0.756570 0.170940 0.251190 1.007898
Cr2   Cr    Cr6+3 0.374010 0.036240 0.749520 1.031745
Cr3   Cr    Cr6+3 0.125990 0.536240 0.250480 1.020737
Cr4   Cr    Cr6+3 0.874010 0.536240 0.749520 1.023818
Cr5   Cr    Cr6+3 0.243430 0.170940 0.748810 0.998224
Cr6   Cr    Cr6+3 0.256570 0.670940 0.251190 1.007007
Cr7   Cr    Cr6+3 0.743430 0.670940 0.748810 1.012366
Cr8   Cr    Cr6+3 0.623740 0.299110 0.249580 1.013423
Cr9   Cr    Cr6+3 0.376260 0.299110 0.750420 1.022610
Cr10  Cr    Cr6+3 0.123740 0.799110 0.249580 1.001723
Cr11  Cr    Cr6+3 0.876260 0.799110 0.750420 1.010119
Cr12  Cr    Cr6+3 0.625990 0.036240 0.250480 1.012994
H1    H     H_    0.831818 0.997500 0.872907 0.134418
H2    H     H_    0.127270 0.855962 0.481139 0.099814
H3    H     H_    0.416371 0.870252 0.647891 0.186373
H4    H     H_    0.388060 0.858719 0.585916 0.110522
H5    H     H_    0.413233 0.678076 0.658940 0.176280
H6    H     H_    0.384750 0.664724 0.596450 0.147395
H7    H     H_    0.476849 0.743899 0.562893 0.146054
H8    H     H_    0.494201 0.633705 0.601847 0.139610
H9    H     H_    0.505570 0.762457 0.625440 0.157144
H10   H     H_    0.065782 0.302459 0.374228 0.177586
H11   H     H_    0.129680 0.261103 0.408655 0.096932
H12   H     H_    0.121441 0.292452 0.294532 0.173380
H13   H     H_    0.308736 0.545494 0.539493 0.094744
H14   H     H_    0.187126 0.250423 0.328170 0.152522
H15   H     H_    0.132213 0.094163 0.358512 0.158598
H16   H     H_    0.133130 0.101159 0.291601 0.166771
H17   H     H_    0.066486 0.136233 0.324255 0.127362
H18   H     H_    0.889798 0.311572 0.632145 0.159666
H19   H     H_    0.853511 0.192008 0.612976 0.117795
H20   H     H_    0.881822 0.255285 0.720663 0.169081
H21   H     H_    0.845771 0.137587 0.701084 0.170784
H22   H     H_    0.936876 0.089342 0.652723 0.140977
H23   H     H_    0.952551 0.106248 0.717989 0.136955
H24   H     H_    0.660543 0.367160 0.483136 0.106563
H25   H     H_    0.973164 0.206045 0.674546 0.146088
H26   H     H_    0.668975 0.835088 0.632568 0.131532
H27   H     H_    0.304987 0.764755 0.383443 0.132205
H28   H     H_    0.188539 0.274815 0.621714 0.172102
H29   H     H_    0.829703 0.369031 0.366890 0.103630
H30   H     H_    0.771463 0.125345 0.481871 0.128468
H31   H     H_    0.163551 0.979136 0.529667 0.125544
H32   H     H_    0.336971 0.443878 0.470521 0.102288
H33   H     H_    0.727489 0.556631 0.512298 0.141176
H34   H     H_    0.876084 0.143394 0.351711 0.152062
H35   H     H_    0.841191 0.981923 0.622995 0.122132
H36   H     H_    0.860553 0.019427 0.377461 0.119526
H37   H     H_    0.893259 0.216798 0.436844 0.166690
H38   H     H_    0.879641 0.091216 0.463507 0.145111
H39   H     H_    0.965324 0.018263 0.416293 0.142902
H40   H     H_    0.987868 0.123994 0.455739 0.141327
H41   H     H_    0.979216 0.144734 0.389803 0.134383
H42   H     H_    0.102485 0.081476 0.667288 0.145328
H43   H     H_    0.127034 0.951224 0.662959 0.100209
H44   H     H_    0.075675 0.935055 0.579585 0.149314
H45   H     H_    0.025619 0.974981 0.627028 0.110947
H46   H     H_    0.120573 0.853499 0.391439 0.123950
H47   H     H_    0.036237 0.160748 0.598861 0.147845
H48   H     H_    0.006720 0.076876 0.551192 0.114792
H49   H     H_    0.083388 0.117421 0.549024 0.172876
H50   H     H_    0.435717 0.477103 0.366064 0.145414
H51   H     H_    0.408061 0.419492 0.420164 0.119988
H52   H     H_    0.407893 0.651205 0.387781 0.161395
H53   H     H_    0.366513 0.610023 0.440681 0.157964
H54   H     H_    0.501378 0.579177 0.427853 0.145081
H55   H     H_    0.458313 0.542289 0.481504 0.142277
H56   H     H_    0.466116 0.677061 0.465263 0.143446
H57   H     H_    0.323114 0.513236 0.628207 0.129414
H58   H     H_    0.630429 0.657244 0.630930 0.135626
H59   H     H_    0.631274 0.535707 0.601553 0.115055
H60   H     H_    0.595645 0.734357 0.561003 0.122474
H61   H     H_    0.664402 0.705851 0.531006 0.185786
H62   H     H_    0.553067 0.567495 0.533263 0.142219
H63   H     H_    0.622660 0.532233 0.505305 0.148841
H64   H     H_    0.581365 0.640984 0.481391 0.141656
H65   H     H_    0.549666 0.265717 0.811817 0.122720
H66   H     H_    0.591923 0.329514 0.860505 0.114317
H67   H     H_    0.513961 0.442773 0.782434 0.177993
H68   H     H_    0.641193 0.360768 0.394466 0.124592
H69   H     H_    0.565064 0.499655 0.826635 0.156532
H70   H     H_    0.649613 0.402150 0.785230 0.157060
H71   H     H_    0.611475 0.491536 0.744138 0.158913
H72   H     H_    0.596665 0.354886 0.739628 0.129089
H73   H     H_    0.514082 0.436933 0.185609 0.157931
H74   H     H_    0.465468 0.332349 0.170857 0.106501
H75   H     H_    0.483006 0.524866 0.103969 0.158043
H76   H     H_    0.427749 0.424966 0.096138 0.171320
H77   H     H_    0.386076 0.476513 0.180521 0.163106
H78   H     H_    0.381653 0.577028 0.133815 0.161517
H79   H     H_    0.469386 0.907454 0.960416 0.098919
H80   H     H_    0.438436 0.582305 0.181737 0.138749
H81   H     H_    0.042814 0.819646 0.821540 0.121269
H82   H     H_    0.060500 0.906172 0.872661 0.114827
H83   H     H_    0.975076 0.953236 0.784761 0.177326
H84   H     H_    0.993214 0.040115 0.834842 0.157387
H85   H     H_    0.099547 0.041135 0.809778 0.163486
H86   H     H_    0.051857 0.078109 0.758598 0.125765
H87   H     H_    0.083280 0.949751 0.760587 0.137972
H88   H     H_    0.959005 0.827966 0.174978 0.122788
H89   H     H_    0.943852 0.909130 0.120980 0.114978
H90   H     H_    0.479353 0.912082 0.050795 0.104285
H91   H     H_    0.025511 0.963495 0.210096 0.176255
H92   H     H_    0.011510 0.044629 0.156655 0.156198
H93   H     H_    0.904112 0.054820 0.177048 0.158229
H94   H     H_    0.949317 0.094443 0.229308 0.130112
H95   H     H_    0.915563 0.968044 0.229334 0.148555
H96   H     H_    0.838321 0.922268 0.038815 0.148787
H97   H     H_    0.156141 0.924047 0.957991 0.147706
H98   H     H_    0.320478 0.322613 0.051773 0.151899
H99   H     H_    0.661314 0.431391 0.961999 0.149642
H100  H     H_    0.834687 0.212140 0.963882 0.152571
H101  H     H_    0.997193 0.406002 0.954990 0.099587
H102  H     H_    0.813165 0.155973 0.906929 0.116365
H103  H     H_    0.934274 0.136158 0.963355 0.160588
H104  H     H_    0.917177 0.062043 0.908829 0.183284
H105  H     H_    0.901682 0.225324 0.859889 0.148269
H106  H     H_    0.975046 0.219300 0.887886 0.138746
H107  H     H_    0.918687 0.300165 0.914961 0.140038
H108  H     H_    0.182832 0.209586 0.027308 0.163716
H109  H     H_    0.203956 0.156241 0.085653 0.114600
H110  H     H_    0.077269 0.161309 0.037903 0.165020
H111  H     H_    0.094372 0.099962 0.096272 0.167696
H112  H     H_    0.173003 0.003443 0.126209 0.129464
H113  H     H_    0.005007 0.406440 0.045363 0.103031
H114  H     H_    0.131184 0.271955 0.129511 0.159210
H115  H     H_    0.053750 0.273576 0.110834 0.133983
H116  H     H_    0.108549 0.331110 0.071132 0.158501
H117  H     H_    0.334590 0.582759 0.021729 0.152023
H118  H     H_    0.338015 0.602757 0.955202 0.119070
H119  H     H_    0.446192 0.544055 0.020731 0.167173
H120  H     H_    0.445862 0.576443 0.955784 0.167680
H121  H     H_    0.406422 0.754051 0.977212 0.140658
H122  H     H_    0.478261 0.726442 0.004834 0.142115
H123  H     H_    0.412669 0.720077 0.042534 0.141803
H124  H     H_    0.679821 0.834337 0.470101 0.112551
H125  H     H_    0.670159 0.717000 0.035967 0.157747
H126  H     H_    0.689566 0.659333 0.093317 0.115938
H127  H     H_    0.570040 0.632476 0.035123 0.164122
H128  H     H_    0.586330 0.575304 0.094591 0.174477
H129  H     H_    0.599538 0.753464 0.131029 0.154683
H130  H     H_    0.526204 0.733394 0.104626 0.140105
H131  H     H_    0.579907 0.808657 0.071050 0.144030
H132  H     H_    0.299450 0.749399 0.556081 0.112537
H133  H     H_    0.148305 0.403793 0.469309 0.123864
H134  H     H_    0.796570 0.258537 0.552120 0.106006
H135  H     H_    0.644718 0.896871 0.548234 0.095857
H136  H     H_    0.315565 0.786404 0.472875 0.090142
H137  H     H_    0.177688 0.300819 0.533640 0.107428
H138  H     H_    0.849066 0.388288 0.456826 0.099456
H139  H     H_    0.523084 0.421219 0.949088 0.147343
H140  H     H_    0.356797 0.427888 0.888007 0.171929
H141  H     H_    0.535332 0.425479 0.038658 0.146697
H142  H     H_    0.996518 0.929411 0.953800 0.146102
H143  H     H_    0.010857 0.929768 0.043160 0.151541
H144  H     H_    0.831972 0.953782 0.128340 0.100619
H145  H     H_    0.165282 0.961718 0.869186 0.102176
H146  H     H_    0.313405 0.368794 0.140125 0.097630
H147  H     H_    0.667482 0.465226 0.872780 0.111265
H148  H     H_    0.673914 0.817420 0.965492 0.111406
H149  H     H_    0.310602 0.785158 0.029781 0.105175
H150  H     H_    0.160921 0.349452 0.961523 0.111479
H151  H     H_    0.670391 0.501605 0.127372 0.134232
H152  H     H_    0.824275 0.312007 0.034435 0.110733
H153  H     H_    0.686617 0.782116 0.878019 0.144533
H154  H     H_    0.303089 0.759417 0.118550 0.139361
H155  H     H_    0.174711 0.324283 0.872068 0.128190
H156  H     H_    0.811987 0.278175 0.121997 0.143266
H157  H     H_    0.464221 0.995612 0.882692 0.134992
H158  H     H_    0.503853 0.005482 0.125293 0.133027
H159  H     H_    0.983225 0.498331 0.878284 0.132438
H160  H     H_    0.017600 0.499321 0.121661 0.138394
H161  H     H_    0.646886 0.946865 0.025584 0.110768
H162  H     H_    0.541079 0.332728 0.377099 0.121294
H163  H     H_    0.347819 0.916111 0.972501 0.109840
H164  H     H_    0.164887 0.508851 0.018937 0.120519
H165  H     H_    0.853452 0.434943 0.973291 0.110781
H166  H     H_    0.640334 0.970173 0.114486 0.143339
H167  H     H_    0.356739 0.944638 0.884034 0.131753
H168  H     H_    0.157243 0.552312 0.106545 0.135751
H169  H     H_    0.859453 0.457447 0.884300 0.139013
H170  H     H_    0.561858 0.062965 0.543877 0.122747
H171  H     H_    0.481071 0.014054 0.466083 0.114009
H172  H     H_    0.030404 0.526568 0.535425 0.118698
H173  H     H_    0.402894 0.289100 0.609466 0.147962
H174  H     H_    0.975978 0.511875 0.462990 0.112524
H175  H     H_    0.560046 0.111477 0.711534 0.146873
H176  H     H_    0.585861 0.198353 0.663668 0.109862
H177  H     H_    0.645677 0.993748 0.695082 0.166769
H178  H     H_    0.669966 0.079495 0.646221 0.187901
H179  H     H_    0.684707 0.221297 0.707557 0.172491
H180  H     H_    0.727148 0.107878 0.724719 0.159121
H181  H     H_    0.659200 0.137393 0.756907 0.132215
H182  H     H_    0.436508 0.939120 0.312937 0.143381
H183  H     H_    0.436769 0.075669 0.319811 0.122885
H184  H     H_    0.024110 0.833387 0.371748 0.117574
H185  H     H_    0.380335 0.915249 0.390992 0.160095
H186  H     H_    0.380902 0.052629 0.401751 0.163895
H187  H     H_    0.324542 0.082619 0.322369 0.143151
H188  H     H_    0.284929 0.999537 0.364296 0.165147
H189  H     H_    0.322677 0.944565 0.311705 0.172468
H190  H     H_    0.060593 0.577677 0.684821 0.124759
H191  H     H_    0.104985 0.528686 0.634059 0.130914
H192  H     H_    0.038755 0.391077 0.708952 0.176552
H193  H     H_    0.090819 0.350354 0.662520 0.155117
H194  H     H_    0.170588 0.457627 0.706033 0.152668
H195  H     H_    0.934792 0.824878 0.617392 0.138427
H196  H     H_    0.140831 0.355748 0.744386 0.158476
H197  H     H_    0.117483 0.487660 0.753795 0.138725
H198  H     H_    0.952667 0.535380 0.307450 0.136037
H199  H     H_    0.906588 0.488466 0.357222 0.106759
H200  H     H_    0.992829 0.350618 0.298489 0.177837
H201  H     H_    0.936776 0.310029 0.341576 0.142493
H202  H     H_    0.857829 0.386694 0.282882 0.152493
H203  H     H_    0.900655 0.283597 0.255865 0.137633
H204  H     H_    0.916380 0.416112 0.239712 0.143729
H205  H     H_    0.521888 0.339042 0.466083 0.111381
H206  H     H_    0.820021 0.032883 0.539662 0.082110
H207  H     H_    0.426627 0.296068 0.521708 0.117375
H208  H     H_    0.006713 0.841330 0.460418 0.103287
H209  H     H_    0.949876 0.830125 0.528957 0.114862
H210  H     H_    0.598239 0.899796 0.357847 0.211546
H211  H     H_    0.600642 0.819822 0.413252 0.116386
H212  H     H_    0.613088 0.734365 0.307419 0.177204
H213  H     H_    0.606086 0.662343 0.364499 0.160483
H214  H     H_    0.504278 0.749871 0.375906 0.166525
H215  H     H_    0.509089 0.665457 0.322802 0.131699
H216  H     H_    0.512332 0.803572 0.314245 0.170660
O1    O     O_R   0.769900 0.064540 0.196060 -0.523020
O2    O     O_R   0.433710 0.069580 0.694600 -0.498968
O3    O     O_R   0.066290 0.569580 0.305400 -0.441460
O4    O     O_R   0.933710 0.569580 0.694600 -0.471805
O5    O     O_R   0.680760 0.993330 0.302620 -0.487048
O6    O     O_R   0.319240 0.993330 0.697380 -0.466745
O7    O     O_R   0.180760 0.493330 0.302620 -0.465243
O8    O     O_R   0.819240 0.493330 0.697380 -0.477449
O9    O     O_3   0.668770 0.168760 0.250420 -0.244144
O10   O     O_3   0.331230 0.168760 0.749580 -0.246256
O11   O     O_3   0.168770 0.668760 0.250420 -0.268663
O12   O     O_R   0.230100 0.064540 0.803940 -0.525459
O13   O     O_3   0.831230 0.668760 0.749580 -0.243510
O14   O     O_R   0.750800 0.274080 0.199250 -0.508401
O15   O     O_R   0.249200 0.274080 0.800750 -0.503603
O16   O     O_R   0.250800 0.774080 0.199250 -0.502528
O17   O     O_R   0.749200 0.774080 0.800750 -0.505957
O18   O     O_R   0.669990 0.371670 0.194150 -0.499198
O19   O     O_R   0.330010 0.371670 0.805850 -0.513870
O20   O     O_R   0.169990 0.871670 0.194150 -0.499756
O21   O     O_R   0.830010 0.871670 0.805850 -0.508165
O22   O     O_R   0.574600 0.238480 0.197800 -0.459168
O23   O     O_R   0.269900 0.564540 0.196060 -0.521541
O24   O     O_R   0.425400 0.238480 0.802200 -0.455736
O25   O     O_R   0.074600 0.738480 0.197800 -0.450043
O26   O     O_R   0.925400 0.738480 0.802200 -0.449589
O27   O     O_R   0.566130 0.068680 0.194240 -0.539390
O28   O     O_R   0.433870 0.068680 0.805760 -0.540763
O29   O     O_R   0.066130 0.568680 0.194240 -0.543477
O30   O     O_R   0.933870 0.568680 0.805760 -0.544749
O31   O     O_R   0.680610 0.992490 0.199570 -0.507198
O32   O     O_R   0.319390 0.992490 0.800430 -0.504407
O33   O     O_R   0.180610 0.492490 0.199570 -0.510836
O34   O     O_R   0.730100 0.564540 0.803940 -0.524727
O35   O     O_R   0.819390 0.492490 0.800430 -0.510119
O36   O     O_R   0.770060 0.065440 0.307230 -0.498130
O37   O     O_R   0.229940 0.065440 0.692770 -0.493665
O38   O     O_R   0.270060 0.565440 0.307230 -0.478659
O39   O     O_R   0.729940 0.565440 0.692770 -0.499480
O40   O     O_R   0.750960 0.274920 0.302300 -0.479418
O41   O     O_R   0.249040 0.274920 0.697700 -0.504984
O42   O     O_R   0.250960 0.774920 0.302300 -0.516849
O43   O     O_R   0.749040 0.774920 0.697700 -0.483366
O44   O     O_R   0.670160 0.372580 0.305320 -0.534349
O45   O     O_R   0.574760 0.239320 0.300850 -0.521370
O46   O     O_R   0.329840 0.372580 0.694680 -0.523147
O47   O     O_R   0.170160 0.872580 0.305320 -0.532346
O48   O     O_R   0.829840 0.872580 0.694680 -0.538482
O49   O     O_3   0.552505 0.051857 0.640563 -0.577826
O50   O     O_3   0.489493 0.988798 0.370600 -0.591082
O51   O     O_3   0.014327 0.497090 0.629369 -0.565554
O52   O     O_3   0.997935 0.480695 0.370656 -0.543550
O53   O     O_3   0.679327 0.828013 0.372132 -0.574643
O54   O     O_3   0.330179 0.818506 0.645569 -0.563470
O55   O     O_3   0.132784 0.409679 0.374677 -0.505502
O56   O     O_R   0.425240 0.239320 0.699150 -0.519784
O57   O     O_3   0.800307 0.295527 0.651433 -0.579070
O58   O     O_3   0.798313 0.140336 0.390479 -0.542840
O59   O     O_3   0.167052 0.060744 0.614983 -0.555734
O60   O     O_3   0.345031 0.474611 0.367890 -0.556931
O61   O     O_3   0.711997 0.622675 0.602260 -0.544551
O62   O     O_3   0.499837 0.343321 0.865486 -0.567654
O63   O     O_3   0.540574 0.355574 0.124822 -0.561494
O64   O     O_3   0.973533 0.852885 0.870407 -0.559798
O65   O     O_3   0.030474 0.853518 0.127474 -0.554298
O66   O     O_3   0.824460 0.055594 0.969402 -0.585095
O67   O     O_R   0.074760 0.739320 0.300850 -0.542324
O68   O     O_3   0.176539 0.052053 0.028502 -0.584836
O69   O     O_3   0.355452 0.451391 0.982518 -0.580899
O70   O     O_3   0.678701 0.560421 0.030551 -0.588595
O71   O     O_R   0.925240 0.739320 0.699150 -0.524629
O72   O     O_R   0.566290 0.069580 0.305400 -0.494845

loop_
_geom_bond_atom_site_label_1
_geom_bond_atom_site_label_2
_ccdc_geom_bond_type
C21   C26   A    
C77   C204  A    
C34   C56   A    
C126  C127  S    
C139  H92   S    
C101  C113  A    
C166  H98   S    
C140  H94   S    
C141  H102  S    
C55   H138  S    
C114  H23   S    
C65   O72   A    
C145  H111  S    
C69   O4    A    
Cr2   O2    S    
C177  C193  S    
C107  H10   S    
C35   C124  A    
Cr2   O28   S    
C169  C205  S    
C147  H114  S    
C29   C33   A    
C108  C109  S    
C95   H193  S    
C125  H58   S    
C110  C111  S    
C126  H61   S    
C70   O5    A    
C128  O62   S    
C189  C194  A    
C36   H2    S    
C169  C174  A    
C108  H14   S    
C25   C60   S    
C45   H57   S    
C41   O47   A    
C195  C199  A    
C81   C86   A    
C95   H192  S    
C201  O69   S    
C151  H126  S    
Cr9   O10   S    
C44   H46   S    
C164  H96   S    
C80   C83   A    
C104  C105  S    
C156  C183  A    
C28   H32   S    
C133  H80   S    
C115  H34   S    
C165  C169  A    
C84   H90   S    
C173  H161  S    
C51   C64   A    
C27   C31   A    
C123  H55   S    
C28   C32   A    
C131  O63   S    
C47   C64   A    
C107  O55   S    
C94   H190  S    
Cr9   O56   S    
C83   H79   S    
C150  H121  S    
C17   C21   A    
C97   O52   S    
C186  C190  A    
C19   C23   A    
C224  C233  A    
C171  O21   A    
C39   C64   S    
C7    O51   S    
C146  C154  A    
C105  H5    S    
C16   C20   A    
C5    C213  A    
C77   H159  S    
C121  H50   S    
C100  O53   S    
C117  H40   S    
C192  C210  A    
C178  C182  S    
C143  H105  S    
C43   H35   S    
C164  C168  A    
C167  H99   S    
Cr10  O67   S    
C151  O70   S    
C219  H184  S    
C22   C27   A    
Cr3   O3    S    
C118  H43   S    
C152  H128  S    
C37   C45   A    
C158  C185  A    
C26   H30   S    
C223  C232  A    
C43   C61   A    
C6    O52   S    
C105  C106  S    
C132  H76   S    
C6    C236  A    
C49   C62   A    
C124  C135  A    
C70   O36   A    
C4    C234  A    
Cr1   O14   S    
C144  C145  S    
C41   O42   A    
C22   C58   S    
C27   H31   S    
C53   C58   A    
C82   C85   A    
C44   C62   A    
C13   C215  A    
C66   C213  S    
C8    C30   A    
C112  O19   A    
C137  H85   S    
C3    C233  A    
C174  H163  S    
C76   C215  A    
C77   C82   A    
C49   C53   A    
C230  C234  A    
C51   C55   A    
C88   H178  S    
C175  H164  S    
C96   H194  S    
C142  H103  S    
C48   C52   A    
C130  H71   S    
C49   H27   S    
C134  H81   S    
C98   C99   S    
C20   C25   A    
C99   H204  S    
C161  C165  A    
C160  O20   A    
C114  H25   S    
C125  O61   S    
C190  H153  S    
C48   H26   S    
C20   H134  S    
C104  H4    S    
C226  O63   S    
C191  H154  S    
C135  H139  S    
C87   H176  S    
C42   O48   A    
C128  C129  S    
C97   C98   S    
C81   C101  A    
C85   C86   A    
C23   C59   S    
C160  C209  S    
C92   H186  S    
Cr7   O39   S    
Cr8   O45   S    
C112  O15   A    
C148  H118  S    
C86   H113  S    
C13   C57   A    
C115  C116  S    
C232  C236  A    
C51   H29   S    
C107  H11   S    
C232  C233  S    
C157  C228  S    
C121  H51   S    
C153  H129  S    
C195  C208  A    
C79   C90   A    
C147  H115  S    
C221  C230  A    
C198  C202  A    
C107  C108  S    
C157  C184  A    
C111  C114  S    
Cr7   O34   S    
Cr9   O46   S    
Cr11  O26   S    
C7    C216  A    
C146  H143  S    
C179  O29   A    
C91   O50   S    
C234  H171  S    
C50   C63   A    
C87   O49   S    
C230  C231  S    
C69   C216  S    
C158  C229  S    
Cr4   O30   S    
C54   C59   A    
C93   H187  S    
C102  H213  S    
Cr12  O72   S    
C155  C159  A    
C106  H8    S    
C136  H84   S    
C199  O66   S    
C120  H48   S    
C109  H17   S    
C137  H87   S    
C91   C92   S    
Cr9   O19   S    
C133  H77   S    
Cr7   O13   S    
C17   H124  S    
C18   H132  S    
C176  H165  S    
C96   H196  S    
C83   C84   A    
Cr10  O25   S    
C103  H214  S    
C8    C12   A    
C187  C205  A    
C116  H37   S    
C131  H73   S    
C23   C28   A    
C103  H216  S    
C109  H16   S    
C99   H202  S    
C37   C59   A    
C158  C163  A    
C191  C209  A    
C197  H140  S    
Cr5   O37   S    
C149  H119  S    
C37   H13   S    
C156  C161  A    
C26   C30   A    
C202  C207  A    
C229  O35   A    
C38   C60   A    
C134  O64   S    
C129  C130  S    
Cr10  O11   S    
C66   O56   A    
C155  C225  S    
C14   O54   S    
C117  H41   S    
C47   H68   S    
C18   C22   A    
C93   H189  S    
C172  C207  S    
C34   C43   A    
C171  O17   A    
C82   C113  A    
C136  C137  S    
C145  H110  S    
C155  C181  A    
C67   O3    A    
C11   C33   A    
C57   C101  A    
C8    C70   S    
C188  C192  A    
C123  H56   S    
C220  H195  S    
C180  O26   A    
C153  H131  S    
Cr3   O29   S    
C225  O1    A    
Cr2   O10   S    
C157  C162  A    
C35   C79   A    
C52   H135  S    
Cr3   O7    S    
C186  C203  A    
C141  H100  S    
C102  C103  S    
C120  H49   S    
C131  H74   S    
C196  H112  S    
Cr5   O41   S    
C152  C153  S    
C91   H182  S    
C98   H200  S    
C179  C215  S    
C159  C164  A    
Cr5   O15   S    
C67   C214  S    
C231  C235  A    
C163  H147  S    
C57   C146  A    
C75   C182  A    
C38   H24   S    
C19   H133  S    
C172  C176  A    
Cr1   O40   S    
C161  H145  S    
Cr12  O9    S    
C10   C72   S    
C96   H197  S    
C151  H125  S    
C199  C203  A    
C87   C88   S    
C200  C205  A    
C53   H136  S    
C1    C211  S    
C119  H45   S    
C138  H89   S    
C165  H97   S    
C5    O49   S    
C91   H183  S    
C176  C185  A    
C227  O12   A    
C15   C19   A    
C127  H64   S    
C188  C206  A    
C50   C54   A    
C40   C63   S    
C3    H172  S    
Cr1   O1    S    
C140  H93   S    
C97   H198  S    
C42   O43   A    
C170  C206  S    
C3    C7    A    
C225  O31   A    
C94   H191  S    
C35   C226  A    
C144  H109  S    
C150  H122  S    
Cr6   O23   S    
C54   H137  S    
C14   C18   A    
C110  H19   S    
C65   C212  S    
C4    O50   S    
C197  C210  A    
Cr8   O44   S    
Cr10  O20   S    
C46   C135  A    
C162  C166  A    
C144  H108  S    
C95   C96   S    
C89   H180  S    
Cr8   O18   S    
C12   C17   A    
C106  H9    S    
C151  C152  S    
C32   O60   S    
C117  H39   S    
C189  H152  S    
C68   C113  A    
C139  H91   S    
Cr8   O9    S    
C74   C193  A    
C173  C181  A    
C55   C60   A    
C25   C29   A    
C40   O41   A    
C41   C62   S    
C114  H22   S    
C145  C147  S    
C170  C175  A    
C129  H67   S    
C192  H155  S    
C67   O67   A    
C118  O59   S    
C216  C220  A    
Cr5   O10   S    
C123  H54   S    
C217  C221  A    
C11   C73   S    
C186  H148  S    
C74   H158  S    
C112  C210  S    
C1    O18   A    
C125  H59   S    
C9    C14   A    
C126  H60   S    
C11   C16   A    
Cr9   O24   S    
C6    C214  A    
C97   H199  S    
C213  C218  A    
C184  H168  S    
C121  C122  S    
C124  H141  S    
C196  C209  A    
C156  C227  S    
C142  H104  S    
C103  H215  S    
C134  H82   S    
Cr4   O8    S    
C125  C126  S    
C100  H211  S    
Cr10  O47   S    
Cr11  O21   S    
Cr12  O31   S    
C131  C132  S    
C99   H203  S    
C110  H18   S    
C72   O38   A    
C127  H62   S    
Cr6   O16   S    
C10   C15   A    
C85   H101  S    
C87   H175  S    
C9    C71   S    
C180  C204  S    
C65   O45   A    
C174  C183  A    
C111  H20   S    
C21   C56   S    
C119  C120  S    
C115  O58   S    
C167  C172  A    
C46   C90   A    
Cr4   O13   S    
C36   C58   A    
C16   O57   S    
C13   O65   S    
C214  C219  A    
C40   O46   A    
Cr11  O48   S    
C149  C150  S    
C139  C140  S    
C198  H151  S    
C102  H212  S    
C104  O54   S    
C141  O66   S    
C189  C207  A    
C128  H66   S    
C92   C93   S    
Cr2   O6    S    
C201  C206  A    
C122  H52   S    
C110  O57   S    
C94   C95   S    
Cr2   O32   S    
C138  C139  S    
C24   C68   A    
C143  H106  S    
C219  C223  A    
Cr11  O13   S    
C29   H33   S    
C222  H207  S    
C74   C78   A    
C142  C143  S    
C118  H42   S    
C152  H127  S    
C140  H95   S    
C105  H6    S    
C200  O68   S    
C128  H65   S    
C98   H201  S    
C175  C184  A    
C129  H69   S    
C119  H44   S    
C132  H75   S    
C178  O24   A    
C122  H53   S    
C34   H206  S    
Cr5   O12   S    
C194  H156  S    
C94   O51   S    
C180  O30   A    
C196  C200  A    
C183  H167  S    
C181  H166  S    
Cr3   O33   S    
C2    C46   A    
Cr3   O11   S    
C160  O16   A    
C193  C226  A    
C68   C154  A    
C137  H86   S    
C223  H208  S    
C71   O37   A    
C148  H117  S    
C195  H1    S    
C116  C117  S    
C2    C182  A    
C118  C119  S    
C88   H177  S    
Cr1   O36   S    
C33   O61   S    
Cr12  O5    S    
C93   H188  S    
C130  H70   S    
C132  C133  S    
C221  H205  S    
C116  H38   S    
C212  C217  A    
C154  H142  S    
C89   H181  S    
C109  H15   S    
C71   O6    A    
C75   C80   A    
C187  C191  A    
C235  H170  S    
C179  O25   A    
C144  O68   S    
C88   C89   S    
C194  C211  A    
C104  H3    S    
C178  O28   A    
C229  O34   A    
C75   H157  S    
C227  O32   A    
C162  H146  S    
C218  C222  A    
C12   O53   S    
C218  H173  S    
Cr11  O71   S    
C168  C173  A    
C15   O55   S    
C92   H185  S    
C39   O40   A    
C72   O7    A    
Cr7   O43   S    
C148  C149  S    
C177  O27   A    
C236  H174  S    
C78   C79   A    
C134  C136  S    
Cr8   O22   S    
C45   C63   A    
C228  O23   A    
C159  H144  S    
C163  C167  A    
C78   C84   A    
C153  H130  S    
C147  H116  S    
C100  C102  S    
C217  H162  S    
C197  C201  A    
C198  C211  A    
C42   C61   S    
C38   C47   A    
Cr6   O38   S    
C73   O39   A    
C190  C208  A    
C24   O64   S    
C222  C231  A    
C5    C235  A    
C108  H12   S    
Cr1   O9    S    
C76   H160  S    
C69   O71   A    
C220  C224  A    
C185  H169  S    
C148  O69   S    
C187  H149  S    
C138  H88   S    
C24   C204  A    
C100  H210  S    
C106  H7    S    
C136  H83   S    
C39   O44   A    
C120  H47   S    
C130  H72   S    
C76   C81   A    
C73   O8    A    
C133  H78   S    
C30   O58   S    
C115  H36   S    
C66   O2    A    
C127  H63   S    
C4    C212  A    
C168  C203  S    
Cr6   O11   S    
C171  C208  S    
C224  H209  S    
C141  C142  S    
C48   C61   A    
Cr4   O4    S    
C121  O60   S    
C150  H123  S    
C166  C170  A    
Cr7   O17   S    
Cr12  O27   S    
C80   C90   A    
C2    O62   S    
C36   C44   A    
C9    C31   A    
C138  O65   S    
C31   O59   S    
Cr6   O42   S    
C10   C32   A    
C149  H120  S    
C89   H179  S    
C228  O33   A    
C50   H28   S    
C177  O22   A    
C111  H21   S    
C202  O70   S    
C188  H150  S    
C122  C123  S    
Cr4   O35   S    
C52   C56   A    
C143  H107  S    
C1    O14   A    
