data_str_m4_o22_o24_f0_acs.sym.127
_audit_creation_date              2013-03-05T15:47:18-0500
_audit_creation_method            fapswitch 2.2
_symmetry_space_group_name_H-M    P1
_symmetry_Int_Tables_number       1
_space_group_crystal_system       triclinic
_cell_length_a                    19.420761
_cell_length_b                    11.244213
_cell_length_c                    18.683785
_cell_angle_alpha                 90.000018
_cell_angle_beta                  91.117229
_cell_angle_gamma                 89.999987
_cell_volume                      4079.22442055

loop_
_atom_site_label
_atom_site_type_symbol
_atom_site_description
_atom_site_fract_x
_atom_site_fract_y
_atom_site_fract_z
_atom_type_partial_charge
O1    O     O_R   0.214130 0.708570 0.829890 -0.515207
O2    O     O_R   0.785870 0.708570 0.170110 -0.515207
O3    O     O_R   0.714130 0.208570 0.829890 -0.515207
O4    O     O_R   0.285870 0.208570 0.170110 -0.515207
O5    O     O_R   0.236050 0.959150 0.825270 -0.511451
O6    O     O_R   0.763950 0.959150 0.174730 -0.511451
O7    O     O_R   0.736050 0.459150 0.825270 -0.511451
O8    O     O_R   0.263950 0.459150 0.174730 -0.511451
C1    C     C_R   0.272592 0.044036 0.853972 0.540123
C2    C     C_R   0.727408 0.044036 0.146028 0.540123
C3    C     C_R   0.772592 0.544036 0.853972 0.540123
C4    C     C_R   0.227408 0.544036 0.146028 0.540123
O9    O     O_R   0.332100 0.076650 0.832310 -0.532651
O10   O     O_R   0.667900 0.076650 0.167690 -0.532650
O11   O     O_R   0.832100 0.576650 0.832310 -0.532651
O12   O     O_R   0.167900 0.576650 0.167690 -0.532650
O13   O     O_R   0.446500 0.918620 0.826240 -0.480640
O14   O     O_R   0.553500 0.918620 0.173760 -0.480640
O15   O     O_R   0.946500 0.418620 0.826240 -0.480640
O16   O     O_R   0.053500 0.418620 0.173760 -0.480640
C5    C     C_R   0.443235 0.816819 0.862225 0.544875
C6    C     C_R   0.556765 0.816819 0.137775 0.544875
C7    C     C_R   0.943235 0.316819 0.862225 0.544875
C8    C     C_R   0.056765 0.316819 0.137775 0.544875
O17   O     O_R   0.457310 0.715830 0.831280 -0.506117
O18   O     O_R   0.542690 0.715830 0.168720 -0.506117
O19   O     O_R   0.957310 0.215830 0.831280 -0.506117
O20   O     O_R   0.042690 0.215830 0.168720 -0.506117
O21   O     O_R   0.321000 0.623520 0.824130 -0.521333
O22   O     O_R   0.679000 0.623520 0.175870 -0.521333
O23   O     O_R   0.821000 0.123520 0.824130 -0.521333
O24   O     O_R   0.179000 0.123520 0.175870 -0.521333
C9    C     C_R   0.262372 0.641537 0.855034 0.545345
C10   C     C_R   0.737628 0.641537 0.144966 0.545345
C11   C     C_R   0.762372 0.141537 0.855034 0.545345
C12   C     C_R   0.237628 0.141537 0.144966 0.545345
O25   O     O_R   0.213990 0.710040 0.667000 -0.504997
O26   O     O_R   0.786010 0.710040 0.333000 -0.504997
O27   O     O_R   0.713990 0.210040 0.667000 -0.504997
O28   O     O_R   0.286010 0.210040 0.333000 -0.504998
O29   O     O_R   0.235920 0.960520 0.674260 -0.506761
O30   O     O_R   0.764080 0.960520 0.325740 -0.506761
O31   O     O_R   0.735920 0.460520 0.674260 -0.506762
O32   O     O_R   0.264080 0.460520 0.325740 -0.506761
C13   C     C_R   0.273353 0.042952 0.645249 0.551847
C14   C     C_R   0.726647 0.042952 0.354751 0.551848
C15   C     C_R   0.773353 0.542952 0.645249 0.551848
C16   C     C_R   0.226647 0.542952 0.354751 0.551847
O33   O     O_R   0.331960 0.078120 0.669410 -0.536658
O34   O     O_R   0.668040 0.078120 0.330590 -0.536658
O35   O     O_R   0.831960 0.578120 0.669410 -0.536658
O36   O     O_R   0.168040 0.578120 0.330590 -0.536658
O37   O     O_R   0.446360 0.919990 0.675230 -0.454458
O38   O     O_R   0.553640 0.919990 0.324770 -0.454458
O39   O     O_R   0.946360 0.419990 0.675230 -0.454458
O40   O     O_R   0.053640 0.419990 0.324770 -0.454459
C17   C     C_R   0.444381 0.820269 0.637535 0.575579
C18   C     C_R   0.555618 0.820269 0.362464 0.575579
C19   C     C_R   0.944381 0.320269 0.637535 0.575578
C20   C     C_R   0.055618 0.320269 0.362465 0.575579
O41   O     O_R   0.457170 0.717300 0.668380 -0.484431
O42   O     O_R   0.542830 0.717300 0.331620 -0.484431
O43   O     O_R   0.957170 0.217300 0.668380 -0.484429
O44   O     O_R   0.042830 0.217300 0.331620 -0.484431
O45   O     O_R   0.320870 0.624890 0.673130 -0.530951
O46   O     O_R   0.679130 0.624890 0.326870 -0.530950
O47   O     O_R   0.820870 0.124890 0.673130 -0.530951
O48   O     O_R   0.179130 0.124890 0.326870 -0.530950
C21   C     C_R   0.258888 0.634958 0.645788 0.571755
C22   C     C_R   0.741112 0.634959 0.354212 0.571757
C23   C     C_R   0.758888 0.134959 0.645787 0.571755
C24   C     C_R   0.241112 0.134959 0.354212 0.571756
Cr1   Cr    Cr6+3 0.229620 0.836040 0.749110 1.019802
Cr2   Cr    Cr6+3 0.770380 0.836040 0.250890 1.019802
Cr3   Cr    Cr6+3 0.729620 0.336040 0.749110 1.019802
Cr4   Cr    Cr6+3 0.270380 0.336040 0.250890 1.019802
Cr5   Cr    Cr6+3 0.387630 0.990680 0.750730 1.039364
Cr6   Cr    Cr6+3 0.612370 0.990680 0.249270 1.039363
Cr7   Cr    Cr6+3 0.887630 0.490680 0.750730 1.039363
Cr8   Cr    Cr6+3 0.112370 0.490680 0.249270 1.039363
Cr9   Cr    Cr6+3 0.386020 0.676590 0.749210 1.014752
Cr10  Cr    Cr6+3 0.613980 0.676590 0.250790 1.014752
Cr11  Cr    Cr6+3 0.886020 0.176590 0.749210 1.014752
Cr12  Cr    Cr6+3 0.113980 0.176590 0.250790 1.014752
O49   O     O_3   0.334430 0.834430 0.749680 -0.318959
O50   O     O_3   0.665570 0.834430 0.250320 -0.318959
O51   O     O_3   0.834430 0.334430 0.749680 -0.318960
O52   O     O_3   0.165570 0.334430 0.250320 -0.318958
C25   C     C_3   0.480099 0.915670 0.035578 -0.106506
C26   C     C_3   0.519901 0.915670 0.964422 -0.106505
C27   C     C_3   0.980099 0.415670 0.035578 -0.106505
C28   C     C_3   0.019901 0.415670 0.964422 -0.106506
C29   C     C_3   0.431588 0.817321 0.006277 -0.160638
C30   C     C_3   0.568412 0.817321 0.993723 -0.160638
C31   C     C_3   0.931588 0.317321 0.006277 -0.160638
C32   C     C_3   0.068412 0.317321 0.993723 -0.160638
H1    H     H_    0.377029 0.803789 0.017496 0.095334
H2    H     H_    0.622971 0.803789 0.982504 0.095334
H3    H     H_    0.877029 0.303789 0.017496 0.095334
H4    H     H_    0.122971 0.303789 0.982504 0.095334
H5    H     H_    0.465276 0.996777 0.065272 0.121721
H6    H     H_    0.534724 0.996777 0.934727 0.121721
H7    H     H_    0.965276 0.496777 0.065272 0.121721
H8    H     H_    0.034723 0.496777 0.934727 0.121721
C33   C     C_3   0.471317 0.819073 0.935964 0.053782
C34   C     C_3   0.528683 0.819073 0.064036 0.053782
C35   C     C_3   0.971317 0.319073 0.935964 0.053782
C36   C     C_3   0.028683 0.319073 0.064036 0.053782
C37   C     C_3   0.519392 0.721183 0.964660 -0.110113
C38   C     C_3   0.480608 0.721183 0.035340 -0.110113
C39   C     C_3   0.019392 0.221183 0.964660 -0.110113
C40   C     C_3   0.980608 0.221183 0.035340 -0.110113
H9    H     H_    0.534305 0.639384 0.935693 0.126819
H10   H     H_    0.465695 0.639385 0.064307 0.126819
H11   H     H_    0.034305 0.139385 0.935693 0.126819
H12   H     H_    0.965695 0.139384 0.064307 0.126819
C41   C     C_3   0.311895 0.528817 0.045226 -0.233921
C42   C     C_3   0.688105 0.528817 0.954774 -0.233921
C43   C     C_3   0.811895 0.028817 0.045226 -0.233922
C44   C     C_3   0.188105 0.028817 0.954774 -0.233921
H13   H     H_    0.318174 0.434352 0.056749 0.131719
H14   H     H_    0.681826 0.434352 0.943250 0.131719
H15   H     H_    0.818174 0.934352 0.056749 0.131719
H16   H     H_    0.181826 0.934352 0.943250 0.131719
H17   H     H_    0.353786 0.573389 0.076362 0.117303
H18   H     H_    0.646214 0.573389 0.923638 0.117303
H19   H     H_    0.853786 0.073389 0.076362 0.117303
H20   H     H_    0.146214 0.073389 0.923638 0.117303
C45   C     C_3   0.321308 0.552063 0.964721 -0.238703
C46   C     C_3   0.678692 0.552063 0.035279 -0.238703
C47   C     C_3   0.821308 0.052063 0.964721 -0.238703
C48   C     C_3   0.178692 0.052063 0.035279 -0.238703
H21   H     H_    0.366243 0.611234 0.957007 0.133172
H22   H     H_    0.633757 0.611234 0.042993 0.133172
H23   H     H_    0.866243 0.111234 0.957007 0.133172
H24   H     H_    0.133757 0.111234 0.042993 0.133172
H25   H     H_    0.332502 0.466973 0.936940 0.118988
H26   H     H_    0.667498 0.466973 0.063059 0.118987
H27   H     H_    0.832502 0.966973 0.936940 0.118988
H28   H     H_    0.167498 0.966973 0.063059 0.118987
H29   H     H_    0.664007 0.939410 0.046249 0.096768
H30   H     H_    0.335993 0.939409 0.953751 0.096768
H31   H     H_    0.164007 0.439410 0.046249 0.096768
H32   H     H_    0.835993 0.439409 0.953751 0.096768
H33   H     H_    0.707838 0.935760 0.925373 0.118774
H34   H     H_    0.292162 0.935760 0.074626 0.118774
H35   H     H_    0.207838 0.435760 0.925373 0.118774
H36   H     H_    0.792161 0.435760 0.074626 0.118774
C49   C     C_3   0.179482 0.524751 0.025033 -0.215298
C50   C     C_3   0.820518 0.524751 0.974967 -0.215298
C51   C     C_3   0.679482 0.024751 0.025033 -0.215298
C52   C     C_3   0.320518 0.024751 0.974967 -0.215298
C53   C     C_3   0.241109 0.708899 0.056660 -0.256059
C54   C     C_3   0.758891 0.708899 0.943340 -0.256060
C55   C     C_3   0.741108 0.208899 0.056660 -0.256059
C56   C     C_3   0.258891 0.208899 0.943340 -0.256060
C57   C     C_3   0.240906 0.575550 0.070457 0.063410
C58   C     C_3   0.759094 0.575550 0.929543 0.063410
C59   C     C_3   0.740906 0.075550 0.070456 0.063410
C60   C     C_3   0.259094 0.075550 0.929543 0.063410
H37   H     H_    0.195821 0.753228 0.080645 0.128513
H38   H     H_    0.804179 0.753228 0.919355 0.128514
H39   H     H_    0.695821 0.253228 0.080645 0.128513
H40   H     H_    0.304179 0.253228 0.919355 0.128514
H41   H     H_    0.287875 0.747264 0.082157 0.115111
H42   H     H_    0.712124 0.747264 0.917843 0.115111
H43   H     H_    0.787875 0.247264 0.082157 0.115111
H44   H     H_    0.212124 0.247264 0.917843 0.115111
C61   C     C_3   0.255403 0.609833 0.932347 0.050985
C62   C     C_3   0.744597 0.609833 0.067653 0.050985
C63   C     C_3   0.755403 0.109833 0.932347 0.050985
C64   C     C_3   0.244597 0.109833 0.067653 0.050985
C65   C     C_3   0.194802 0.525178 0.944402 -0.247105
C66   C     C_3   0.805198 0.525178 0.055598 -0.247105
C67   C     C_3   0.694802 0.025178 0.944402 -0.247105
C68   C     C_3   0.305198 0.025178 0.055598 -0.247105
C69   C     C_3   0.239297 0.726332 0.974494 -0.226694
C70   C     C_3   0.760702 0.726332 0.025506 -0.226694
C71   C     C_3   0.739297 0.226332 0.974494 -0.226694
C72   C     C_3   0.260703 0.226332 0.025506 -0.226694
H45   H     H_    0.274099 0.796243 0.958562 0.107100
H46   H     H_    0.725901 0.796243 0.041438 0.107100
H47   H     H_    0.774099 0.296243 0.958562 0.107100
H48   H     H_    0.225901 0.296243 0.041438 0.107100
H49   H     H_    0.185912 0.752587 0.959472 0.132720
H50   H     H_    0.814088 0.752587 0.040528 0.132720
H51   H     H_    0.685912 0.252587 0.959472 0.132720
H52   H     H_    0.314088 0.252587 0.040528 0.132720
H53   H     H_    0.632867 0.080759 0.032984 0.135455
H54   H     H_    0.367133 0.080759 0.967016 0.135455
H55   H     H_    0.132867 0.580759 0.032984 0.135455
H56   H     H_    0.867133 0.580759 0.967016 0.135455
H57   H     H_    0.148382 0.554845 0.913594 0.137581
H58   H     H_    0.851618 0.554844 0.086406 0.137581
H59   H     H_    0.648382 0.054845 0.913594 0.137581
H60   H     H_    0.351618 0.054844 0.086406 0.137581
C73   C     C_3   0.506052 0.700270 0.460619 -0.251324
C74   C     C_3   0.493949 0.700270 0.539381 -0.251323
C75   C     C_3   0.006050 0.200270 0.460619 -0.251323
C76   C     C_3   0.993947 0.200270 0.539380 -0.251323
H61   H     H_    0.545016 0.632761 0.449118 0.115827
H62   H     H_    0.454985 0.632760 0.550882 0.115827
H63   H     H_    0.045015 0.132761 0.449118 0.115826
H64   H     H_    0.954983 0.132761 0.550882 0.115827
H65   H     H_    0.458878 0.669003 0.432315 0.188512
H66   H     H_    0.541122 0.669004 0.567685 0.188512
H67   H     H_    0.958877 0.169004 0.432314 0.188512
H68   H     H_    0.041121 0.169003 0.567685 0.188511
H69   H     H_    0.615502 0.822096 0.511245 0.137566
H70   H     H_    0.384498 0.822095 0.488755 0.137566
H71   H     H_    0.115500 0.322095 0.511245 0.137567
H72   H     H_    0.884496 0.322098 0.488755 0.137564
C77   C     C_3   0.576022 0.883200 0.494195 -0.324248
C78   C     C_3   0.423977 0.883198 0.505805 -0.324248
C79   C     C_3   0.076021 0.383199 0.494195 -0.324248
C80   C     C_3   0.923977 0.383199 0.505805 -0.324247
C81   C     C_3   0.461970 0.909904 0.435774 0.096841
C82   C     C_3   0.538029 0.909905 0.564226 0.096840
C83   C     C_3   0.961970 0.409905 0.435774 0.096840
C84   C     C_3   0.038029 0.409904 0.564226 0.096841
C85   C     C_3   0.526207 0.828228 0.435686 0.028306
C86   C     C_3   0.473793 0.828228 0.564314 0.028306
C87   C     C_3   0.026206 0.328228 0.435686 0.028306
C88   C     C_3   0.973792 0.328228 0.564314 0.028306
H73   H     H_    0.479291 0.004519 0.437977 0.108098
H74   H     H_    0.520708 0.004520 0.562022 0.108099
H75   H     H_    0.979290 0.504520 0.437977 0.108098
H76   H     H_    0.020708 0.504519 0.562023 0.108099
H77   H     H_    0.400925 0.963405 0.526374 0.091116
H78   H     H_    0.599074 0.963407 0.473625 0.091117
H79   H     H_    0.900925 0.463407 0.526375 0.091118
H80   H     H_    0.099073 0.463406 0.473626 0.091115
C89   C     C_3   0.179121 0.650908 0.459034 -0.240536
C90   C     C_3   0.820879 0.650908 0.540966 -0.240534
C91   C     C_3   0.679121 0.150909 0.459034 -0.240535
C92   C     C_3   0.320879 0.150907 0.540965 -0.240535
H81   H     H_    0.126385 0.628665 0.440239 0.137384
H82   H     H_    0.873616 0.628665 0.559761 0.137383
H83   H     H_    0.626384 0.128665 0.440239 0.137384
H84   H     H_    0.373616 0.128665 0.559761 0.137384
H85   H     H_    0.185578 0.741518 0.437849 0.115488
H86   H     H_    0.814424 0.741518 0.562150 0.115487
H87   H     H_    0.685577 0.241518 0.437849 0.115488
H88   H     H_    0.314424 0.241517 0.562150 0.115488
C93   C     C_3   0.180562 0.654522 0.539028 -0.226256
C94   C     C_3   0.819438 0.654522 0.460971 -0.226255
C95   C     C_3   0.680562 0.154523 0.539028 -0.226256
C96   C     C_3   0.319439 0.154520 0.460971 -0.226255
H89   H     H_    0.170187 0.745831 0.555669 0.134732
H90   H     H_    0.829814 0.745830 0.444331 0.134731
H91   H     H_    0.670188 0.245833 0.555668 0.134732
H92   H     H_    0.329817 0.245828 0.444330 0.134731
H93   H     H_    0.135622 0.605181 0.559465 0.157166
H94   H     H_    0.864379 0.605180 0.440535 0.157165
H95   H     H_    0.635621 0.105184 0.559465 0.157165
H96   H     H_    0.364379 0.105176 0.440535 0.157165
H97   H     H_    0.703779 0.889133 0.454106 0.103132
H98   H     H_    0.296220 0.889133 0.545894 0.103133
H99   H     H_    0.203775 0.389138 0.454106 0.103130
H100  H     H_    0.796217 0.389128 0.545894 0.103134
H101  H     H_    0.695748 0.930187 0.579331 0.179588
H102  H     H_    0.304249 0.930183 0.420668 0.179585
H103  H     H_    0.195750 0.430185 0.579332 0.179586
H104  H     H_    0.804251 0.430185 0.420669 0.179587
C97   C     C_3   0.243122 0.449786 0.473604 -0.230702
C98   C     C_3   0.756876 0.449786 0.526396 -0.230707
C99   C     C_3   0.743122 0.949786 0.473604 -0.230704
C100  C     C_3   0.256876 0.949786 0.526396 -0.230705
C101  C     C_3   0.304839 0.636734 0.447829 -0.251560
C102  C     C_3   0.695162 0.636738 0.552171 -0.251561
C103  C     C_3   0.804838 0.136736 0.447829 -0.251561
C104  C     C_3   0.195162 0.136737 0.552171 -0.251560
C105  C     C_3   0.238270 0.569821 0.431544 0.057997
C106  C     C_3   0.761730 0.569821 0.568456 0.057999
C107  C     C_3   0.738270 0.069822 0.431544 0.057998
C108  C     C_3   0.261730 0.069821 0.568456 0.057998
H105  H     H_    0.349081 0.591726 0.422438 0.140886
H106  H     H_    0.650919 0.591733 0.577563 0.140887
H107  H     H_    0.849081 0.091730 0.422437 0.140887
H108  H     H_    0.150919 0.091731 0.577562 0.140887
H109  H     H_    0.301294 0.727977 0.426419 0.158934
H110  H     H_    0.698708 0.727981 0.573580 0.158933
H111  H     H_    0.801293 0.227979 0.426420 0.158934
H112  H     H_    0.198708 0.227980 0.573581 0.158932
C109  C     C_3   0.248686 0.598859 0.570069 0.067871
C110  C     C_3   0.751314 0.598859 0.429931 0.067872
C111  C     C_3   0.748686 0.098860 0.570069 0.067871
C112  C     C_3   0.251314 0.098859 0.429931 0.067873
C113  C     C_3   0.242760 0.466335 0.556205 -0.265443
C114  C     C_3   0.757240 0.466336 0.443795 -0.265446
C115  C     C_3   0.742759 0.966336 0.556205 -0.265444
C116  C     C_3   0.257239 0.966335 0.443795 -0.265445
C117  C     C_3   0.314336 0.637564 0.530000 -0.233050
C118  C     C_3   0.685664 0.637565 0.470000 -0.233052
C119  C     C_3   0.814336 0.137563 0.530000 -0.233053
C120  C     C_3   0.185665 0.137566 0.470000 -0.233051
H113  H     H_    0.333023 0.719445 0.553507 0.097343
H114  H     H_    0.666974 0.719443 0.446492 0.097344
H115  H     H_    0.833027 0.219440 0.553508 0.097344
H116  H     H_    0.166978 0.219447 0.446493 0.097343
H117  H     H_    0.354947 0.571361 0.542832 0.123020
H118  H     H_    0.645054 0.571358 0.457170 0.123018
H119  H     H_    0.854946 0.071356 0.542829 0.123019
H120  H     H_    0.145053 0.071363 0.457169 0.123019
H121  H     H_    0.293185 0.411238 0.460666 0.128614
H122  H     H_    0.706810 0.411248 0.539330 0.128611
H123  H     H_    0.793187 0.911243 0.460668 0.128612
H124  H     H_    0.206812 0.911244 0.539332 0.128613
H125  H     H_    0.286695 0.420381 0.582746 0.109360
H126  H     H_    0.713306 0.420381 0.417252 0.109361
H127  H     H_    0.786693 0.920380 0.582747 0.109361
H128  H     H_    0.213303 0.920383 0.417253 0.109361
N1    N     N_R   0.581965 0.897207 0.629066 0.066621
O53   O     O_R   0.593369 0.989320 0.669783 -0.339867
O54   O     O_R   0.603514 0.793739 0.651024 -0.370457
N2    N     N_R   0.418034 0.897205 0.370934 0.066620
O55   O     O_R   0.406629 0.989317 0.330216 -0.339867
O56   O     O_R   0.396487 0.793736 0.348976 -0.370456
N3    N     N_R   0.081965 0.397205 0.629066 0.066621
O57   O     O_R   0.093371 0.489319 0.669783 -0.339868
O58   O     O_R   0.103512 0.293737 0.651024 -0.370454
N4    N     N_R   0.918034 0.397206 0.370933 0.066620
O59   O     O_R   0.906629 0.489318 0.330216 -0.339867
O60   O     O_R   0.896486 0.293738 0.348976 -0.370457

loop_
_geom_bond_atom_site_label_1
_geom_bond_atom_site_label_2
_geom_bond_distance
_ccdc_geom_bond_type
N4    O60   1.300108 A    
O4    C12   1.284304 A    
O39   C19   1.324275 A    
C74   H66   1.106213 S    
C102  C106  1.521414 S    
C21   C109  1.481387 S    
C80   C83   1.544101 S    
Cr7   O51   2.038086 S    
C99   C107  1.563734 S    
C62   C70   1.563166 S    
C118  H114  1.079845 S    
O25   C21   1.282019 A    
C31   H3    1.094725 S    
O21   C9    1.302490 A    
C91   C107  1.561300 S    
C1    O9    1.285362 A    
O44   Cr12  2.116835 S    
C52   H54   1.115117 S    
C78   C86   1.572196 S    
C3    O11   1.285362 A    
C4    O12   1.285362 A    
C55   H43   1.105027 S    
H34   C68   1.097689 S    
C25   C34   1.527463 S    
H31   C49   1.083018 S    
C4    C57   1.484032 S    
C100  C116  1.554630 S    
C101  C117  1.542753 S    
C29   C38   1.532833 S    
O2    C10   1.284304 A    
C103  H107  1.111461 S    
C32   C36   1.536586 S    
C75   C76   1.494726 S    
C76   H68   1.106213 S    
O17   Cr9   2.092845 S    
C101  H109  1.102842 S    
C46   H22   1.109009 S    
C67   H59   1.111346 S    
C81   C85   1.549140 S    
C12   C64   1.496527 S    
O16   Cr8   1.972599 S    
C93   C109  1.564777 S    
C119  H115  1.079835 S    
C93   H93   1.108301 S    
H36   C66   1.097688 S    
O28   Cr4   2.105889 S    
C53   H37   1.112741 S    
N2    O55   1.301529 A    
C92   C108  1.561302 S    
O22   Cr10  1.994725 S    
O15   C7    1.329659 A    
C80   C88   1.572198 S    
C116  H128  1.106542 S    
O46   Cr10  1.972118 S    
O48   C24   1.303384 A    
C47   C63   1.547851 S    
H35   C65   1.097688 S    
C91   H87   1.101065 S    
C70   H46   1.082223 S    
C45   H21   1.109009 S    
C66   H58   1.111346 S    
C96   H92   1.092621 S    
C81   N2    1.475052 S    
C42   C58   1.557053 S    
H100  C98   1.082036 S    
C98   H122  1.095778 S    
O31   Cr3   1.984061 S    
C62   C66   1.533719 S    
C25   H5    1.108435 S    
Cr12  O52   2.038166 S    
C26   C33   1.527462 S    
C27   H7    1.108436 S    
C17   O41   1.314811 A    
C43   H15   1.090158 S    
C13   C108  1.479257 S    
C30   C37   1.532834 S    
C19   O43   1.314811 A    
C20   O44   1.314809 A    
O1    Cr1   2.107240 S    
Cr8   O52   2.038086 S    
H70   C78   1.073253 S    
C79   C84   1.544094 S    
C56   C72   1.547344 S    
C89   C93   1.494865 S    
O46   C22   1.303383 A    
C99   C115  1.554631 S    
C111  C119  1.553270 S    
C112  C120  1.553272 S    
C19   C88   1.495429 S    
C28   H8    1.108435 S    
C70   H50   1.108839 S    
C16   O36   1.278901 A    
C45   H25   1.111970 S    
C43   C59   1.557053 S    
C44   C60   1.557053 S    
C54   C58   1.521423 S    
O27   C23   1.282019 A    
C48   C64   1.547850 S    
C78   H77   1.080832 S    
O31   C15   1.302605 A    
C82   H74   1.116301 S    
C72   H48   1.082223 S    
C104  H112  1.102840 S    
N3    O58   1.300111 A    
O47   Cr11  1.972118 S    
C92   C96   1.494863 S    
C39   C40   1.532983 S    
H97   C99   1.082040 S    
H98   C100  1.082033 S    
O24   C12   1.302489 A    
C98   C106  1.563738 S    
C73   C85   1.564440 S    
O30   C14   1.302604 A    
N1    O54   1.300109 A    
C56   H44   1.105027 S    
C109  C113  1.516458 S    
C28   C32   1.546000 S    
C110  C118  1.553274 S    
C42   H14   1.090158 S    
O32   Cr4   1.984059 S    
C26   H6    1.108436 S    
H32   C50   1.083018 S    
O11   Cr7   2.117740 S    
C74   H62   1.096066 S    
C43   C47   1.541055 S    
O27   Cr3   2.105888 S    
C41   C45   1.541055 S    
C38   H10   1.108533 S    
O8    C4    1.298997 A    
Cr5   O49   2.038086 S    
C104  H108  1.111462 S    
C53   C57   1.521423 S    
H103  C113  1.095836 S    
C63   C71   1.563167 S    
C61   C69   1.563167 S    
C18   C85   1.495430 S    
C113  H125  1.106540 S    
C32   C39   1.532833 S    
C53   C69   1.547342 S    
C49   H55   1.115117 S    
O22   C10   1.302489 A    
C55   C59   1.521423 S    
C79   H80   1.080836 S    
H33   C67   1.097688 S    
C56   C60   1.521423 S    
C2    O10   1.285362 A    
C27   C28   1.550810 S    
C1    C60   1.484032 S    
C55   H39   1.112741 S    
Cr2   O50   2.035389 S    
C51   C59   1.558866 S    
O5    C1    1.298996 A    
C102  C118  1.542751 S    
C103  H111  1.102840 S    
O3    C11   1.284303 A    
C48   H24   1.109008 S    
Cr1   O49   2.035393 S    
C100  C108  1.563732 S    
C101  H105  1.111464 S    
C98   C114  1.554629 S    
C102  H110  1.102841 S    
C103  C119  1.542751 S    
C90   H86   1.101067 S    
Cr3   O51   2.035393 S    
C94   C110  1.564781 S    
C117  H117  1.107379 S    
C20   C87   1.495430 S    
C29   H1    1.094727 S    
C40   H12   1.108535 S    
C119  H119  1.107376 S    
O26   Cr2   2.105889 S    
C97   C105  1.563728 S    
C120  H120  1.107379 S    
C99   H123  1.095784 S    
C5    O17   1.305605 A    
O29   C13   1.302606 A    
O28   C24   1.282017 A    
C53   H41   1.105027 S    
O14   C6    1.329658 A    
C93   H89   1.092617 S    
C54   H38   1.112740 S    
C8    O20   1.305604 A    
C77   C82   1.544097 S    
C95   H91   1.092615 S    
C14   C107  1.479255 S    
O40   Cr8   1.996330 S    
H69   C77   1.073254 S    
C83   H75   1.116301 S    
O41   Cr9   2.116832 S    
C69   H45   1.082222 S    
C32   H4    1.094727 S    
O33   Cr5   2.092840 S    
C25   C29   1.546000 S    
C73   C74   1.494727 S    
O35   Cr7   2.092840 S    
C47   H27   1.111969 S    
O29   Cr1   1.984061 S    
O32   C16   1.302605 A    
C61   C65   1.533718 S    
C41   H17   1.110414 S    
Cr9   O49   2.038166 S    
C64   C68   1.533718 S    
C81   H73   1.116302 S    
C43   H19   1.110414 S    
C18   O42   1.314808 A    
Cr11  O51   2.038166 S    
O26   C22   1.282017 A    
O20   Cr12  2.092844 S    
C11   C63   1.496527 S    
C73   H65   1.106215 S    
C9    C61   1.496527 S    
C15   C106  1.479255 S    
C112  C116  1.516459 S    
C31   C40   1.532833 S    
C94   H90   1.092618 S    
C71   H51   1.108839 S    
C30   H2    1.094727 S    
C80   H79   1.080831 S    
C69   H49   1.108840 S    
C84   H76   1.116301 S    
N2    O56   1.300109 A    
C90   H82   1.104899 S    
H30   C52   1.083018 S    
C33   C37   1.533359 S    
C72   H52   1.108838 S    
C77   C85   1.572196 S    
O6    Cr2   1.987382 S    
C8    C36   1.472036 S    
C82   N1    1.475054 S    
C84   N3    1.475052 S    
C64   C72   1.563167 S    
N4    O59   1.301529 A    
O42   Cr10  2.116835 S    
O18   Cr10  2.092844 S    
C75   H63   1.096066 S    
C35   C39   1.533359 S    
O34   Cr6   2.092839 S    
C55   C71   1.547342 S    
C26   C30   1.546000 S    
C17   C86   1.495430 S    
O24   Cr12  1.994725 S    
O30   Cr2   1.984059 S    
C51   C67   1.541264 S    
C110  C114  1.516461 S    
C97   C113  1.554633 S    
O37   C17   1.324274 A    
C15   O35   1.278903 A    
C94   H94   1.108301 S    
Cr10  O50   2.038166 S    
O40   C20   1.324275 A    
O43   Cr11  2.116832 S    
O48   Cr12  1.972118 S    
O37   Cr5   1.996327 S    
O21   Cr9   1.994728 S    
C42   C46   1.541055 S    
O39   Cr7   1.996327 S    
O45   Cr9   1.972118 S    
C13   O33   1.278901 A    
C104  C108  1.521411 S    
C89   C105  1.561298 S    
O13   Cr5   1.972599 S    
O15   Cr7   1.972599 S    
O2    Cr2   2.107241 S    
C31   C35   1.536586 S    
C104  C120  1.542752 S    
C114  H126  1.106540 S    
C54   C70   1.547343 S    
C65   H57   1.111346 S    
O23   C11   1.302490 A    
C75   C87   1.564439 S    
C50   C58   1.558868 S    
C91   H83   1.104900 S    
C27   C36   1.527463 S    
O6    C2    1.298996 A    
C44   H20   1.110414 S    
C48   H28   1.111971 S    
C101  C105  1.521410 S    
C89   H81   1.104901 S    
C102  H106  1.111461 S    
O19   Cr11  2.092845 S    
C37   C38   1.532985 S    
C90   C94   1.494863 S    
N1    O53   1.301527 A    
C46   C62   1.547851 S    
O45   C21   1.303385 A    
H101  C115  1.095831 S    
H102  C116  1.095836 S    
O47   C23   1.303384 A    
C117  H113  1.079841 S    
O13   C5    1.329659 A    
C118  H118  1.107381 S    
C83   C87   1.549139 S    
N3    O57   1.301530 A    
C36   C40   1.533358 S    
C120  H116  1.079838 S    
C6    O18   1.305604 A    
C83   N4    1.475052 S    
C54   H42   1.105027 S    
O12   Cr8   2.117737 S    
C25   C26   1.550810 S    
O36   Cr8   2.092839 S    
C49   C57   1.558867 S    
C2    C59   1.484034 S    
C5    C33   1.472036 S    
C77   H78   1.080835 S    
C3    C58   1.484032 S    
O38   Cr6   1.996330 S    
C95   H95   1.108301 S    
H71   C79   1.073254 S    
C52   C60   1.558867 S    
C23   C111  1.481386 S    
C24   C112  1.481385 S    
O8    Cr4   1.987382 S    
O1    C9    1.284303 A    
O7    C3    1.298996 A    
C45   C61   1.547851 S    
C74   C86   1.564439 S    
C103  C107  1.521412 S    
C47   H23   1.109009 S    
O23   Cr11  1.994728 S    
C41   H13   1.090158 S    
C29   C33   1.536586 S    
O16   C8    1.329658 A    
C22   C110  1.481385 S    
C73   H61   1.096065 S    
C7    O19   1.305605 A    
Cr4   O52   2.035389 S    
C10   C62   1.496527 S    
C115  H127  1.106539 S    
C37   H9    1.108533 S    
C16   C105  1.479256 S    
Cr6   O50   2.038086 S    
C7    C35   1.472036 S    
O5    Cr1   1.987381 S    
C91   C95   1.494863 S    
C100  H124  1.095779 S    
C82   C86   1.549140 S    
C71   H47   1.082222 S    
O9    Cr5   2.117740 S    
C41   C57   1.557053 S    
C76   C88   1.564440 S    
H72   C80   1.073253 S    
C97   H121  1.095785 S    
C95   C111  1.564778 S    
C96   C112  1.564782 S    
O7    Cr3   1.987381 S    
C6    C34   1.472036 S    
C63   C67   1.533718 S    
C92   H84   1.104900 S    
H99   C97   1.082040 S    
C76   H64   1.096066 S    
C28   C35   1.527463 S    
C75   H67   1.106212 S    
H104  C114  1.095832 S    
C68   H60   1.111346 S    
C89   H85   1.101065 S    
O14   Cr6   1.972599 S    
C50   C66   1.541264 S    
C111  C115  1.516459 S    
C84   C88   1.549140 S    
O3    Cr3   2.107240 S    
H29   C51   1.083018 S    
O38   C18   1.324275 A    
O25   Cr1   2.105888 S    
C30   C34   1.536586 S    
C44   C48   1.541055 S    
C78   C81   1.544097 S    
C79   C87   1.572195 S    
C96   H96   1.108301 S    
C14   O34   1.278901 A    
C90   C106  1.561302 S    
C92   H88   1.101067 S    
C49   C65   1.541264 S    
O10   Cr6   2.117737 S    
O4    Cr4   2.107241 S    
C50   H56   1.115117 S    
C52   C68   1.541264 S    
C51   H53   1.115117 S    
C56   H40   1.112740 S    
C27   C31   1.545999 S    
C34   C38   1.533359 S    
C109  C117  1.553267 S    
C39   H11   1.108533 S    
C42   H18   1.110415 S    
C44   H16   1.090158 S    
C46   H26   1.111970 S    
