data_str_m4_o22_o22_f0_acs.sym.128
_audit_creation_date              2013-03-05T15:47:07-0500
_audit_creation_method            fapswitch 2.2
_symmetry_space_group_name_H-M    P1
_symmetry_Int_Tables_number       1
_space_group_crystal_system       triclinic
_cell_length_a                    19.691345
_cell_length_b                    11.297052
_cell_length_c                    18.717706
_cell_angle_alpha                 89.998825
_cell_angle_beta                  89.669524
_cell_angle_gamma                 90.000254
_cell_volume                      4163.76208536

loop_
_atom_site_label
_atom_site_type_symbol
_atom_site_description
_atom_site_fract_x
_atom_site_fract_y
_atom_site_fract_z
_atom_type_partial_charge
O1    O     O_R   0.957210 0.449410 0.665480 -0.532718
O2    O     O_R   0.042790 0.449410 0.334520 -0.532728
O3    O     O_R   0.457210 0.949410 0.665480 -0.532722
O4    O     O_R   0.542790 0.949410 0.334520 -0.532730
O5    O     O_R   0.820730 0.541240 0.668250 -0.515731
O6    O     O_R   0.179270 0.541240 0.331750 -0.515741
O7    O     O_R   0.320730 0.041240 0.668250 -0.515744
O8    O     O_R   0.679270 0.041240 0.331750 -0.515741
C1    C     C_R   0.761473 0.523632 0.639146 0.544567
C2    C     C_R   0.238508 0.523559 0.360872 0.544632
C3    C     C_R   0.261491 0.023565 0.639130 0.544625
C4    C     C_R   0.738508 0.023559 0.360873 0.544627
O9    O     O_R   0.714240 0.455060 0.663710 -0.521008
O10   O     O_R   0.285760 0.455060 0.336290 -0.521017
O11   O     O_R   0.214240 0.955060 0.663710 -0.521022
O12   O     O_R   0.785760 0.955060 0.336290 -0.521016
O13   O     O_R   0.736780 0.204870 0.675910 -0.517626
O14   O     O_R   0.263220 0.204870 0.324090 -0.517637
O15   O     O_R   0.236780 0.704870 0.675910 -0.517640
O16   O     O_R   0.763220 0.704870 0.324090 -0.517638
C5    C     C_R   0.774368 0.121143 0.649425 0.533996
C6    C     C_R   0.225632 0.121142 0.350575 0.534004
C7    C     C_R   0.274367 0.621139 0.649426 0.533983
C8    C     C_R   0.725635 0.621135 0.350573 0.533989
O17   O     O_R   0.833070 0.087590 0.673490 -0.529456
O18   O     O_R   0.166930 0.087590 0.326510 -0.529446
O19   O     O_R   0.333070 0.587590 0.673490 -0.529449
O20   O     O_R   0.666930 0.587590 0.326510 -0.529446
O21   O     O_R   0.946890 0.246800 0.676300 -0.500847
O22   O     O_R   0.053110 0.246800 0.323700 -0.500848
O23   O     O_R   0.446890 0.746800 0.676300 -0.500846
O24   O     O_R   0.553110 0.746800 0.323700 -0.500847
C9    C     C_R   0.969359 0.342103 0.645073 0.548151
C10   C     C_R   0.030631 0.342100 0.354923 0.548132
C11   C     C_R   0.469355 0.842103 0.645070 0.548142
C12   C     C_R   0.530650 0.842103 0.354930 0.548163
O25   O     O_R   0.956650 0.457120 0.827980 -0.540332
O26   O     O_R   0.043350 0.457120 0.172020 -0.540338
O27   O     O_R   0.456650 0.957120 0.827980 -0.540331
O28   O     O_R   0.543350 0.957120 0.172020 -0.540334
O29   O     O_R   0.820220 0.548390 0.818890 -0.514338
O30   O     O_R   0.179780 0.548390 0.181110 -0.514323
O31   O     O_R   0.320220 0.048390 0.818890 -0.514329
O32   O     O_R   0.679780 0.048390 0.181110 -0.514330
C13   C     C_R   0.760841 0.533127 0.849234 0.562673
C14   C     C_R   0.239158 0.533126 0.150764 0.562701
C15   C     C_R   0.260841 0.033129 0.849234 0.562675
C16   C     C_R   0.739159 0.033132 0.150766 0.562722
O33   O     O_R   0.713680 0.462770 0.826210 -0.495477
O34   O     O_R   0.286320 0.462770 0.173790 -0.495468
O35   O     O_R   0.213680 0.962770 0.826210 -0.495477
O36   O     O_R   0.786320 0.962770 0.173790 -0.495458
O37   O     O_R   0.736260 0.212010 0.826560 -0.510768
O38   O     O_R   0.263740 0.212010 0.173440 -0.510769
O39   O     O_R   0.236260 0.712010 0.826560 -0.510766
O40   O     O_R   0.763740 0.712010 0.173440 -0.510767
C17   C     C_R   0.773366 0.131013 0.858129 0.530103
C18   C     C_R   0.226630 0.131027 0.141866 0.530114
C19   C     C_R   0.273364 0.631006 0.858127 0.530100
C20   C     C_R   0.726632 0.631020 0.141869 0.530110
O41   O     O_R   0.832520 0.095300 0.836000 -0.522172
O42   O     O_R   0.167480 0.095300 0.164000 -0.522170
O43   O     O_R   0.332520 0.595300 0.836000 -0.522177
O44   O     O_R   0.667480 0.595300 0.164000 -0.522171
O45   O     O_R   0.946380 0.253940 0.826940 -0.438380
O46   O     O_R   0.053620 0.253940 0.173060 -0.438404
O47   O     O_R   0.446380 0.753940 0.826940 -0.438381
O48   O     O_R   0.553620 0.753940 0.173060 -0.438377
C21   C     C_R   0.964408 0.353554 0.855812 0.589005
C22   C     C_R   0.035577 0.353554 0.144195 0.589021
C23   C     C_R   0.464408 0.853554 0.855812 0.588993
C24   C     C_R   0.535586 0.853556 0.144192 0.589034
Cr1   Cr    Cr6+3 0.885690 0.492860 0.745310 1.004638
Cr2   Cr    Cr6+3 0.114310 0.492860 0.254690 1.004640
Cr3   Cr    Cr6+3 0.385690 0.992860 0.745310 1.004638
Cr4   Cr    Cr6+3 0.614310 0.992860 0.254690 1.004642
Cr5   Cr    Cr6+3 0.729880 0.332270 0.748190 1.024567
Cr6   Cr    Cr6+3 0.270120 0.332270 0.251810 1.024570
Cr7   Cr    Cr6+3 0.229880 0.832270 0.748190 1.024562
Cr8   Cr    Cr6+3 0.770120 0.832270 0.251810 1.024569
Cr9   Cr    Cr6+3 0.888120 0.178590 0.753010 1.062580
Cr10  Cr    Cr6+3 0.111880 0.178590 0.246990 1.062570
Cr11  Cr    Cr6+3 0.388120 0.678590 0.753010 1.062573
Cr12  Cr    Cr6+3 0.611880 0.678590 0.246990 1.062582
O49   O     O_3   0.834560 0.334570 0.748840 -0.298821
O50   O     O_3   0.165440 0.334570 0.251160 -0.298838
O51   O     O_3   0.334560 0.834570 0.748840 -0.298835
O52   O     O_3   0.665440 0.834570 0.251160 -0.298850
C25   C     C_3   0.687352 0.132192 0.465954 -0.235695
C26   C     C_3   0.312651 0.132187 0.534044 -0.235689
C27   C     C_3   0.187353 0.632188 0.465952 -0.235688
C28   C     C_3   0.812645 0.632214 0.534049 -0.235702
H1    H     H_    0.638474 0.095563 0.451447 0.130479
H2    H     H_    0.361523 0.095532 0.548546 0.130483
H3    H     H_    0.138478 0.595531 0.451461 0.130480
H4    H     H_    0.861519 0.595567 0.548557 0.130502
H5    H     H_    0.687680 0.220761 0.440732 0.109243
H6    H     H_    0.312338 0.220757 0.559268 0.109236
H7    H     H_    0.187668 0.720750 0.440716 0.109243
H8    H     H_    0.812326 0.720788 0.559261 0.109221
C29   C     C_3   0.692843 0.145026 0.547084 -0.229777
C30   C     C_3   0.307155 0.145024 0.452914 -0.229771
C31   C     C_3   0.192854 0.645046 0.547082 -0.229767
C32   C     C_3   0.807155 0.645028 0.452916 -0.229774
H9    H     H_    0.687424 0.237234 0.562803 0.138765
H10   H     H_    0.312574 0.237235 0.437194 0.138772
H11   H     H_    0.187474 0.737271 0.562785 0.138773
H12   H     H_    0.812580 0.737232 0.437184 0.138781
H13   H     H_    0.649083 0.100932 0.573255 0.109385
H14   H     H_    0.350915 0.100932 0.426739 0.109382
H15   H     H_    0.149081 0.601002 0.573271 0.109391
H16   H     H_    0.850914 0.600923 0.426751 0.109375
H17   H     H_    0.721814 0.868838 0.464215 0.107813
H18   H     H_    0.278160 0.868824 0.535805 0.107806
H19   H     H_    0.221808 0.368845 0.464209 0.107803
H20   H     H_    0.778179 0.368871 0.535827 0.107841
H21   H     H_    0.705696 0.923795 0.585161 0.108493
H22   H     H_    0.294299 0.923788 0.414855 0.108506
H23   H     H_    0.205678 0.423811 0.585152 0.108504
H24   H     H_    0.794296 0.423782 0.414866 0.108496
C33   C     C_3   0.756347 0.938999 0.480642 -0.220743
C34   C     C_3   0.243640 0.939008 0.519367 -0.220747
C35   C     C_3   0.256343 0.438999 0.480641 -0.220742
C36   C     C_3   0.743645 0.439026 0.519384 -0.220675
C37   C     C_3   0.810615 0.130791 0.448590 -0.256693
C38   C     C_3   0.189388 0.130817 0.551409 -0.256708
C39   C     C_3   0.310617 0.630790 0.448593 -0.256693
C40   C     C_3   0.689379 0.630836 0.551404 -0.256734
C41   C     C_3   0.746861 0.056722 0.436833 0.063076
C42   C     C_3   0.253137 0.056732 0.563169 0.063082
C43   C     C_3   0.246862 0.556722 0.436833 0.063071
C44   C     C_3   0.753129 0.556766 0.563177 0.063089
H25   H     H_    0.854788 0.090651 0.420526 0.131821
H26   H     H_    0.145212 0.090695 0.579479 0.131811
H27   H     H_    0.354791 0.590656 0.420527 0.131825
H28   H     H_    0.645204 0.590711 0.579474 0.131793
H29   H     H_    0.804034 0.221327 0.427151 0.109047
H30   H     H_    0.195978 0.221354 0.572838 0.109052
H31   H     H_    0.304036 0.721329 0.427162 0.109054
H32   H     H_    0.695963 0.721379 0.572826 0.109031
C45   C     C_3   0.760426 0.090447 0.574206 0.065824
C46   C     C_3   0.239572 0.090447 0.425795 0.065822
C47   C     C_3   0.260427 0.590442 0.574206 0.065808
C48   C     C_3   0.739572 0.590446 0.425797 0.065818
C49   C     C_3   0.753779 0.957850 0.561996 -0.260678
C50   C     C_3   0.246215 0.957851 0.438013 -0.260682
C51   C     C_3   0.253768 0.457848 0.561994 -0.260673
C52   C     C_3   0.746215 0.457851 0.438026 -0.260698
C53   C     C_3   0.823187 0.133397 0.529410 -0.220206
C54   C     C_3   0.176812 0.133410 0.470589 -0.220204
C55   C     C_3   0.323191 0.633382 0.529413 -0.220220
C56   C     C_3   0.676809 0.633408 0.470583 -0.220177
H33   H     H_    0.842059 0.219424 0.547006 0.109764
H34   H     H_    0.157943 0.219431 0.452981 0.109767
H35   H     H_    0.342069 0.719403 0.547016 0.109769
H36   H     H_    0.657934 0.719422 0.452964 0.109772
H37   H     H_    0.863792 0.067682 0.539227 0.126169
H38   H     H_    0.136203 0.067701 0.460778 0.126163
H39   H     H_    0.363791 0.567655 0.539229 0.126177
H40   H     H_    0.636206 0.567686 0.460775 0.126166
H41   H     H_    0.808677 0.908667 0.469116 0.126771
H42   H     H_    0.191299 0.908716 0.530888 0.126779
H43   H     H_    0.308672 0.408664 0.469118 0.126774
H44   H     H_    0.691316 0.408696 0.530915 0.126791
H45   H     H_    0.796051 0.909926 0.588358 0.123045
H46   H     H_    0.203943 0.909925 0.411652 0.123048
H47   H     H_    0.296031 0.409908 0.588360 0.123040
H48   H     H_    0.703940 0.409924 0.411671 0.123036
C57   C     C_3   0.003847 0.204344 0.458988 -0.233562
C58   C     C_3   0.996141 0.204348 0.541013 -0.233563
C59   C     C_3   0.503858 0.704345 0.458990 -0.233565
C60   C     C_3   0.496136 0.704345 0.541012 -0.233563
H49   H     H_    0.046454 0.150133 0.441882 0.130815
H50   H     H_    0.953527 0.150152 0.558120 0.130820
H51   H     H_    0.546471 0.650145 0.441896 0.130801
H52   H     H_    0.453516 0.650157 0.558104 0.130808
H53   H     H_    0.959374 0.160448 0.434676 0.114157
H54   H     H_    0.040609 0.160442 0.565328 0.114162
H55   H     H_    0.459395 0.660440 0.434666 0.114172
H56   H     H_    0.540596 0.660432 0.565339 0.114171
H57   H     H_    0.616208 0.891160 0.454654 0.110249
H58   H     H_    0.383785 0.891159 0.545342 0.110255
H59   H     H_    0.116200 0.391161 0.454634 0.110264
H60   H     H_    0.883791 0.391166 0.545357 0.110273
H61   H     H_    0.600212 0.834765 0.575648 0.110910
H62   H     H_    0.399785 0.834770 0.424349 0.110914
H63   H     H_    0.100218 0.334768 0.575634 0.110907
H64   H     H_    0.899772 0.334778 0.424359 0.110902
C61   C     C_3   0.064414 0.405939 0.473790 -0.217648
C62   C     C_3   0.935578 0.405946 0.526203 -0.217665
C63   C     C_3   0.564420 0.905940 0.473800 -0.217678
C64   C     C_3   0.435576 0.905939 0.526198 -0.217684
C65   C     C_3   0.941541 0.390283 0.445129 -0.260510
C66   C     C_3   0.058452 0.390281 0.554865 -0.260501
C67   C     C_3   0.441549 0.890279 0.445125 -0.260487
C68   C     C_3   0.558449 0.890277 0.554873 -0.260493
C69   C     C_3   0.010338 0.332974 0.430918 0.062260
C70   C     C_3   0.989653 0.332980 0.569078 0.062252
C71   C     C_3   0.510350 0.832976 0.430923 0.062251
C72   C     C_3   0.489649 0.832976 0.569077 0.062250
H65   H     H_    0.938267 0.477600 0.418158 0.124177
H66   H     H_    0.061735 0.477599 0.581832 0.124173
H67   H     H_    0.438274 0.977597 0.418155 0.124188
H68   H     H_    0.561726 0.977594 0.581842 0.124180
H69   H     H_    0.947859 0.500076 0.536406 0.131236
H70   H     H_    0.052129 0.500067 0.463584 0.131246
H71   H     H_    0.447863 0.000066 0.536402 0.131240
H72   H     H_    0.552138 0.000070 0.463594 0.131239
C73   C     C_3   0.810309 0.007567 0.043088 -0.223721
C74   C     C_3   0.189694 0.007563 0.956913 -0.223709
C75   C     C_3   0.310315 0.507574 0.043087 -0.223704
C76   C     C_3   0.689693 0.507561 0.956913 -0.223709
H73   H     H_    0.811540 0.914363 0.055303 0.129681
H74   H     H_    0.188465 0.914353 0.944705 0.129665
H75   H     H_    0.311611 0.414365 0.055344 0.129748
H76   H     H_    0.688461 0.414355 0.944702 0.129670
H77   H     H_    0.855172 0.040856 0.070097 0.228438
H78   H     H_    0.144832 0.040840 0.929896 0.228451
H79   H     H_    0.355169 0.540967 0.070079 0.228399
H80   H     H_    0.644830 0.540844 0.929898 0.228449
C77   C     C_3   0.817586 0.026017 0.964298 -0.224571
C78   C     C_3   0.182413 0.026027 0.035701 -0.224550
C79   C     C_3   0.317578 0.525984 0.964291 -0.224563
C80   C     C_3   0.682413 0.526018 0.035702 -0.224552
H81   H     H_    0.867038 0.065999 0.953781 0.165184
H82   H     H_    0.132960 0.066009 0.046211 0.165182
H83   H     H_    0.367046 0.565921 0.953746 0.165209
H84   H     H_    0.632959 0.566001 0.046214 0.165183
H85   H     H_    0.819533 0.938808 0.936963 0.126701
H86   H     H_    0.180468 0.938823 0.063043 0.126707
H87   H     H_    0.319494 0.438755 0.936970 0.126663
H88   H     H_    0.680466 0.438812 0.063042 0.126703
H89   H     H_    0.661139 0.946447 0.051668 0.107932
H90   H     H_    0.338856 0.946455 0.948347 0.107937
H91   H     H_    0.161133 0.446441 0.051664 0.107932
H92   H     H_    0.838859 0.446449 0.948345 0.107936
H93   H     H_    0.701133 0.936527 0.928980 0.113886
H94   H     H_    0.298866 0.936559 0.071028 0.113893
H95   H     H_    0.201121 0.436527 0.928971 0.113879
H96   H     H_    0.798864 0.436544 0.071028 0.113895
C81   C     C_3   0.682069 0.028687 0.031339 -0.228815
C82   C     C_3   0.317931 0.028703 0.968662 -0.228818
C83   C     C_3   0.182067 0.528677 0.031336 -0.228794
C84   C     C_3   0.817931 0.528693 0.968664 -0.228818
C85   C     C_3   0.755041 0.200349 0.059968 -0.262037
C86   C     C_3   0.244947 0.200351 0.940018 -0.262035
C87   C     C_3   0.255036 0.700340 0.059966 -0.262065
C88   C     C_3   0.744952 0.700345 0.940022 -0.262037
C89   C     C_3   0.746319 0.067740 0.073784 0.047533
C90   C     C_3   0.253680 0.067742 0.926213 0.047515
C91   C     C_3   0.246318 0.567729 0.073781 0.047521
C92   C     C_3   0.753680 0.567737 0.926215 0.047525
H97   H     H_    0.715513 0.251305 0.089288 0.114635
H98   H     H_    0.284470 0.251310 0.910691 0.114632
H99   H     H_    0.215503 0.751293 0.089281 0.114646
H100  H     H_    0.784478 0.751305 0.910700 0.114636
H101  H     H_    0.804892 0.231967 0.078421 0.164323
H102  H     H_    0.195091 0.231949 0.921560 0.164278
H103  H     H_    0.304885 0.731969 0.078427 0.164249
H104  H     H_    0.695098 0.731950 0.921564 0.164285
C93   C     C_3   0.758301 0.101607 0.934814 0.054898
C94   C     C_3   0.241695 0.101629 0.065180 0.054890
C95   C     C_3   0.258299 0.601596 0.934812 0.054909
C96   C     C_3   0.741695 0.601616 0.065183 0.054891
C97   C     C_3   0.694188 0.027903 0.948913 -0.261545
C98   C     C_3   0.305810 0.027934 0.051088 -0.261537
C99   C     C_3   0.194183 0.527902 0.948910 -0.261545
C100  C     C_3   0.805809 0.527919 0.051089 -0.261541
C101  C     C_3   0.748355 0.218710 0.978331 -0.232766
C102  C     C_3   0.251636 0.218731 0.021654 -0.232761
C103  C     C_3   0.248357 0.718700 0.978329 -0.232747
C104  C     C_3   0.751638 0.718716 0.021659 -0.232761
H105  H     H_    0.778812 0.292016 0.958548 0.108604
H106  H     H_    0.221182 0.292041 0.041431 0.108614
H107  H     H_    0.278815 0.792006 0.958546 0.108603
H108  H     H_    0.721176 0.792018 0.041436 0.108599
H109  H     H_    0.694800 0.243733 0.969825 0.129169
H110  H     H_    0.305189 0.243766 0.030150 0.129149
H111  H     H_    0.194803 0.743727 0.969820 0.129166
H112  H     H_    0.805192 0.743749 0.030163 0.129162
H113  H     H_    0.643972 0.098142 0.042301 0.128313
H114  H     H_    0.356027 0.098156 0.957693 0.128319
H115  H     H_    0.143971 0.598132 0.042299 0.128306
H116  H     H_    0.856028 0.598147 0.957698 0.128316
H117  H     H_    0.650033 0.066883 0.920750 0.116947
H118  H     H_    0.349964 0.066925 0.079248 0.116959
H119  H     H_    0.150030 0.566894 0.920750 0.116943
H120  H     H_    0.849963 0.566906 0.079251 0.116953
C105  C     C_3   0.006179 0.477839 0.039709 -0.286996
C106  C     C_3   0.993817 0.477835 0.960292 -0.286992
C107  C     C_3   0.506181 0.977839 0.039708 -0.287002
C108  C     C_3   0.493816 0.977834 0.960292 -0.286998
H121  H     H_    0.049981 0.532030 0.051548 0.144577
H122  H     H_    0.950019 0.532038 0.948450 0.144577
H123  H     H_    0.549984 0.032030 0.051545 0.144571
H124  H     H_    0.450017 0.032033 0.948452 0.144577
H125  H     H_    0.963925 0.524894 0.067226 0.128912
H126  H     H_    0.036076 0.524875 0.932773 0.128917
H127  H     H_    0.463928 0.024895 0.067226 0.128919
H128  H     H_    0.536074 0.024875 0.932771 0.128920
H129  H     H_    0.617363 0.784313 0.038687 0.063792
H130  H     H_    0.382624 0.784320 0.961326 0.063796
H131  H     H_    0.117362 0.284300 0.038694 0.063816
H132  H     H_    0.882623 0.284306 0.961317 0.063806
H133  H     H_    0.596012 0.858541 0.922676 0.106281
H134  H     H_    0.403979 0.858568 0.077325 0.106310
H135  H     H_    0.096012 0.358543 0.922679 0.106281
H136  H     H_    0.903975 0.358580 0.077319 0.106307
C109  C     C_3   0.065440 0.273970 0.021898 -0.228670
C110  C     C_3   0.934542 0.273978 0.978117 -0.228705
C111  C     C_3   0.565442 0.773973 0.021895 -0.228663
C112  C     C_3   0.434541 0.773976 0.978119 -0.228688
C113  C     C_3   0.943188 0.294610 0.059551 0.059855
C114  C     C_3   0.056793 0.294588 0.940461 0.059872
C115  C     C_3   0.443193 0.794606 0.059553 0.059873
C116  C     C_3   0.556793 0.794586 0.940459 0.059888
C117  C     C_3   0.013543 0.349523 0.068524 0.028678
C118  C     C_3   0.986442 0.349518 0.931485 0.028668
C119  C     C_3   0.513547 0.849523 0.068523 0.028679
C120  C     C_3   0.486442 0.849515 0.931485 0.028672
H137  H     H_    0.945109 0.180829 0.968631 0.212069
H138  H     H_    0.054868 0.180823 0.031399 0.212098
H139  H     H_    0.445096 0.680826 0.968628 0.212066
H140  H     H_    0.554875 0.680826 0.031400 0.212101
N1    N     N_R   0.934776 0.187709 0.103765 0.035359
O53   O     O_R   0.900612 0.195176 0.163368 -0.361204
O54   O     O_R   0.968828 0.091098 0.091005 -0.376128
N2    N     N_R   0.065188 0.187667 0.896260 0.035374
O55   O     O_R   0.099309 0.195120 0.836628 -0.361144
O56   O     O_R   0.031161 0.091036 0.909078 -0.376213
N3    N     N_R   0.434789 0.687707 0.103766 0.035340
O57   O     O_R   0.400656 0.695184 0.163386 -0.361150
O58   O     O_R   0.468834 0.591100 0.090993 -0.376140
N4    N     N_R   0.565188 0.687664 0.896262 0.035382
O59   O     O_R   0.599328 0.695101 0.836642 -0.361175
O60   O     O_R   0.531150 0.591046 0.909069 -0.376188

loop_
_geom_bond_atom_site_label_1
_geom_bond_atom_site_label_2
_geom_bond_distance
_ccdc_geom_bond_type
C114  C118  1.528080 S    
O4    C12   1.292900 A    
O39   C19   1.313506 A    
C46   C50   1.521055 S    
C107  C108  1.507678 S    
C36   H44   1.105985 S    
Cr7   O51   2.061562 S    
C95   C99   1.533895 S    
C58   H54   1.106578 S    
C83   C99   1.559835 S    
O25   C21   1.290152 A    
C13   C92   1.498871 S    
C27   C43   1.545870 S    
C77   H81   1.090320 S    
C106  C118  1.553750 S    
C65   H65   1.110137 S    
H93   C97   1.105867 S    
C1    O9    1.292908 A    
C2    C43   1.480442 S    
O44   Cr12  2.116004 S    
C15   C90   1.498865 S    
C3    O11   1.292805 A    
C61   C66   1.531644 S    
C56   H36   1.092024 S    
C55   H35   1.092033 S    
C68   H68   1.110141 S    
C54   H38   1.107199 S    
C45   C49   1.521048 S    
O2    C10   1.292949 A    
C103  H111  1.104229 S    
C100  H120  1.110443 S    
O17   Cr9   2.113296 S    
C7    C47   1.477293 S    
H58   C64   1.091855 S    
H59   C61   1.091823 S    
O31   Cr3   1.982911 S    
C84   H116  1.103969 S    
H19   C35   1.089761 S    
O16   Cr8   1.979409 S    
C64   C67   1.531639 S    
C81   C89   1.561445 S    
C34   C50   1.538111 S    
C76   H80   1.087478 S    
C85   H97   1.110626 S    
C105  H121  1.081682 S    
O28   Cr4   2.129518 S    
O12   Cr8   2.127250 S    
O22   Cr10  1.993876 S    
C107  H123  1.081681 S    
O46   Cr10  1.993461 S    
C35   H43   1.105974 S    
C108  H124  1.081695 S    
C61   H70   1.107387 S    
O14   Cr6   1.979409 S    
C75   C79   1.495517 S    
H135  C114  1.107345 S    
H91   C83   1.084419 S    
C51   H47   1.110952 S    
H24   C52   1.108037 S    
C81   C97   1.559841 S    
C58   H50   1.085545 S    
C61   C69   1.570711 S    
C25   C29   1.529932 S    
Cr12  O52   2.055335 S    
C27   C31   1.529959 S    
C86   C102  1.548450 S    
C31   C47   1.554526 S    
C17   O41   1.298305 A    
C112  H139  1.087068 S    
C19   O43   1.298306 A    
C20   O44   1.298298 A    
C73   H77   1.087470 S    
C105  H125  1.111410 S    
Cr8   O52   2.061558 S    
C102  H110  1.104204 S    
O46   C22   1.298744 A    
C64   C72   1.570702 S    
C39   C43   1.525742 S    
H136  C113  1.107308 S    
C28   C32   1.529945 S    
C37   C41   1.525722 S    
C16   O36   1.297908 A    
C67   H67   1.110141 S    
C38   H26   1.110360 S    
O27   C23   1.290161 A    
C31   H11   1.087544 S    
C113  N1    1.472811 S    
H23   C51   1.108030 S    
C82   H114  1.103967 S    
C88   C92   1.529738 S    
O47   Cr11  1.993480 S    
C74   C78   1.495483 S    
O21   C9    1.301368 A    
H96   C100  1.105872 S    
C12   C71   1.478875 S    
C25   C41   1.545900 S    
C110  H137  1.087082 S    
H133  C116  1.107353 S    
O24   C12   1.301348 A    
C19   C95   1.501247 S    
C28   C44   1.545889 S    
C79   H83   1.090481 S    
O8    Cr4   2.009162 S    
C36   C44   1.574104 S    
O32   Cr4   1.982888 S    
C26   C30   1.529940 S    
C53   H33   1.092014 S    
C39   C55   1.534582 S    
C63   C68   1.531617 S    
C40   C56   1.534587 S    
O11   Cr7   2.127210 S    
O27   Cr3   2.129509 S    
O3    Cr3   2.105426 S    
C93   C101  1.565290 S    
C97   H117  1.110439 S    
H131  C109  1.077720 S    
C95   C103  1.565296 S    
Cr5   O49   2.061562 S    
C104  H112  1.104235 S    
C59   H55   1.106567 S    
C57   H53   1.106563 S    
O7    C3    1.305765 A    
C67   C71   1.523480 S    
C83   C91   1.561446 S    
O22   C10   1.301384 A    
C4    O12   1.292820 A    
H94   C98   1.105880 S    
C2    O10   1.292806 A    
C32   H16   1.107129 S    
N4    O59   1.302183 A    
C55   H39   1.107215 S    
O5    C1    1.305839 A    
O3    C11   1.292926 A    
O8    C4    1.305775 A    
C6    C46   1.477283 S    
O38   C18   1.313481 A    
C105  C106  1.507683 S    
C101  H109  1.104226 S    
C109  H138  1.087128 S    
Cr1   O49   2.053035 S    
H90   C82   1.084404 S    
Cr3   O51   2.053035 S    
H64   C65   1.106564 S    
C64   H71   1.107378 S    
H60   C62   1.091817 S    
C77   H85   1.110695 S    
C115  N3    1.472761 S    
C57   C69   1.550227 S    
O26   Cr2   2.129518 S    
C5    O17   1.299520 A    
O29   C13   1.308353 A    
O28   C24   1.290139 A    
O14   C6    1.297697 A    
C8    O20   1.299522 A    
N2    O55   1.302193 A    
C113  C117  1.528073 S    
C31   H15   1.107227 S    
C87   C91   1.529761 S    
C75   H79   1.087572 S    
O40   Cr8   2.003886 S    
C112  C115  1.552316 S    
C40   H32   1.106552 S    
C48   C56   1.566460 S    
O41   Cr9   2.115974 S    
C38   C54   1.534593 S    
C114  N2    1.472841 S    
C66   C70   1.523477 S    
O31   C15   1.308351 A    
C9    C70   1.478905 S    
C47   C55   1.566454 S    
O33   Cr5   2.098232 S    
C60   C72   1.550219 S    
C82   C98   1.559830 S    
O5    Cr1   2.009147 S    
O35   Cr7   2.098232 S    
C14   C91   1.498872 S    
O29   Cr1   1.982911 S    
O32   C16   1.308361 A    
H17   C33   1.089774 S    
C78   H86   1.110702 S    
C96   C104  1.565293 S    
C57   H49   1.085553 S    
C30   C46   1.554558 S    
C27   H7    1.106388 S    
C74   C90   1.539972 S    
Cr9   O49   2.055340 S    
C60   H52   1.085507 S    
C18   O42   1.298306 A    
Cr11  O51   2.055340 S    
O26   C22   1.290150 A    
O20   Cr12  2.113271 S    
C73   C77   1.495479 S    
C20   C96   1.501257 S    
C106  H126  1.111405 S    
C79   C95   1.550508 S    
C80   C96   1.550490 S    
C49   H45   1.110951 S    
C36   C52   1.538158 S    
C17   C93   1.501248 S    
H134  C115  1.107279 S    
C39   H27   1.110362 S    
C77   C93   1.550485 S    
C40   H28   1.110364 S    
C76   C80   1.495489 S    
C38   C42   1.525743 S    
C29   H13   1.107129 S    
C66   H66   1.110142 S    
C80   H84   1.090333 S    
H21   C49   1.108041 S    
O30   C14   1.308363 A    
C16   C89   1.498877 S    
C85   C89   1.529747 S    
C62   C65   1.531654 S    
C88   H104  1.102044 S    
C111  C119  1.588769 S    
C112  C120  1.588823 S    
O6    Cr2   2.009162 S    
C76   C92   1.539987 S    
C85   H101  1.102008 S    
C48   C52   1.521068 S    
C60   H56   1.106568 S    
O42   Cr10  2.116004 S    
O18   Cr10  2.113271 S    
C106  H122  1.081698 S    
C18   C94   1.501250 S    
O34   Cr6   2.098187 S    
C78   C94   1.550487 S    
C79   H87   1.110767 S    
C26   H2    1.083663 S    
C47   C51   1.521041 S    
O24   Cr12  1.993876 S    
O30   Cr2   1.982888 S    
C4    C41   1.480419 S    
H132  C110  1.077676 S    
O1    C9    1.292921 A    
O48   Cr12  1.993461 S    
O37   C17   1.313495 A    
C15   O35   1.297904 A    
C86   H98   1.110621 S    
C37   H29   1.106563 S    
Cr10  O50   2.055335 S    
O40   C20   1.313497 A    
O43   Cr11  2.115974 S    
C82   C90   1.561440 S    
C21   C118  1.484476 S    
O37   Cr5   2.003846 S    
N3    O57   1.302143 A    
C93   C97   1.533904 S    
C94   C102  1.565329 S    
O39   Cr7   2.003846 S    
C98   H118  1.110445 S    
C62   H69   1.107385 S    
O45   Cr9   1.993480 S    
C88   C104  1.548443 S    
C13   O33   1.297902 A    
C104  H108  1.086289 S    
O13   Cr5   1.979452 S    
O23   Cr11  1.993847 S    
H95   C99   1.105866 S    
O15   Cr7   1.979452 S    
C102  H106  1.086287 S    
H63   C66   1.106563 S    
C52   H48   1.110950 S    
O23   C11   1.301360 A    
C30   H14   1.107151 S    
H61   C68   1.106561 S    
C3    C42   1.480430 S    
C32   H12   1.087539 S    
C62   C70   1.570719 S    
C1    C44   1.480451 S    
H20   C36   1.089811 S    
C35   C43   1.574054 S    
C33   C41   1.574075 S    
C34   H42   1.106021 S    
O6    C2    1.305764 A    
C109  C114  1.552343 S    
C115  C119  1.528068 S    
C101  H105  1.086297 S    
C116  C120  1.528074 S    
O1    Cr1   2.105426 S    
C46   C54   1.566479 S    
O19   Cr11  2.113296 S    
C5    C45   1.477285 S    
H57   C63   1.091807 S    
C8    C48   1.477316 S    
O45   C21   1.298739 A    
O47   C23   1.298736 A    
N1    O53   1.302171 A    
C73   H73   1.077768 S    
C26   C42   1.545887 S    
C105  C117  1.553743 S    
C6    O18   1.299511 A    
H130  C112  1.077640 S    
C107  C119  1.553736 S    
O36   Cr8   2.098187 S    
C53   H37   1.107211 S    
C73   C89   1.539998 S    
O38   Cr6   2.003886 S    
C110  C113  1.552317 S    
C87   H99   1.110630 S    
C75   H75   1.078022 S    
C59   C60   1.541897 S    
C56   H40   1.107213 S    
C57   C58   1.541925 S    
O15   C7    1.297717 A    
C28   H4    1.083676 S    
C68   C72   1.523466 S    
C111  H140  1.087115 S    
C45   C53   1.566473 S    
C103  H107  1.086308 S    
C116  N4    1.472831 S    
C63   C71   1.570693 S    
C80   H88   1.110706 S    
N4    O60   1.302385 A    
C78   H82   1.090326 S    
C87   C103  1.548426 S    
N1    O54   1.302317 A    
C59   C71   1.550220 S    
C83   H115  1.103969 S    
C109  C117  1.588793 S    
C76   H76   1.077786 S    
C32   C48   1.554571 S    
C7    O19   1.299517 A    
C107  H127  1.111418 S    
Cr4   O52   2.053045 S    
O2    Cr2   2.105410 S    
O48   C24   1.298737 A    
Cr6   O50   2.061558 S    
C50   H46   1.110954 S    
C33   H41   1.105982 S    
C111  C116  1.552325 S    
C25   H1    1.083661 S    
C39   H31   1.106560 S    
C40   C44   1.525710 S    
C11   C72   1.478868 S    
C29   H9    1.087518 S    
O9    Cr5   2.127210 S    
O16   C8    1.297711 A    
H62   C67   1.106568 S    
H22   C50   1.108038 S    
N2    O56   1.302433 A    
O7    Cr3   2.009147 S    
C110  C118  1.588798 S    
C74   H74   1.077817 S    
C59   H51   1.085495 S    
C25   H5    1.106348 S    
C84   C100  1.559832 S    
C85   C101  1.548432 S    
C86   H102  1.102044 S    
C23   C120  1.484471 S    
C24   C119  1.484443 S    
C96   C100  1.533887 S    
O13   C5    1.297700 A    
Cr2   O50   2.053045 S    
N3    O58   1.302250 A    
C37   C53   1.534579 S    
H89   C81   1.084426 S    
C35   C51   1.538117 S    
O21   Cr9   1.993847 S    
C33   C49   1.538124 S    
C58   C70   1.550234 S    
C28   H8    1.106337 S    
C86   C90   1.529744 S    
C37   H25   1.110364 S    
O25   Cr1   2.129509 S    
C38   H30   1.106554 S    
C84   C92   1.561449 S    
C29   C45   1.554561 S    
C22   C117  1.484449 S    
C81   H113  1.103967 S    
C94   C98   1.533891 S    
C87   H103  1.102031 S    
C88   H100  1.110629 S    
C14   O34   1.297899 A    
C74   H78   1.087483 S    
H92   C84   1.084404 S    
C10   C69   1.478902 S    
C108  C120  1.553755 S    
C65   C69   1.523477 S    
C26   H6    1.106387 S    
C30   H10   1.087534 S    
C63   H72   1.107381 S    
O10   Cr6   2.127250 S    
O4    Cr4   2.105410 S    
C108  H128  1.111408 S    
C99   H119  1.110441 S    
H18   C34   1.089854 S    
H129  C111  1.077691 S    
C27   H3    1.083667 S    
C54   H34   1.091994 S    
C75   C91   1.540021 S    
C34   C42   1.574074 S    
