data_str_m3_o40_o41_f0_fof.sym.44
_audit_creation_date              2012-12-10T16:38:05-0500
_audit_creation_method            fapswitch 2.2
_symmetry_space_group_name_H-M    P1
_symmetry_Int_Tables_number       1
_space_group_crystal_system       triclinic
_cell_length_a                    28.136699
_cell_length_b                    18.610714
_cell_length_c                    16.942962
_cell_angle_alpha                 89.617089
_cell_angle_beta                  61.446239
_cell_angle_gamma                 89.696796
_cell_volume                      7792.76503941

loop_
_atom_site_label
_atom_site_type_symbol
_atom_type_description
_atom_site_fract_x
_atom_site_fract_y
_atom_site_fract_z
_atom_type_partial_charge
C1    C     C_R   0.700890 0.265823 0.677210 0.914537
C2    C     C_R   0.102996 0.500649 0.484068 0.066832
C3    C     C_R   0.200233 0.197936 0.903303 0.066743
C4    C     C_R   0.617512 0.326625 0.047188 -0.220554
C5    C     C_R   0.385430 0.674896 0.949436 -0.222736
C6    C     C_R   0.390484 0.318180 0.953126 -0.226711
C7    C     C_R   0.627687 0.655182 0.042318 -0.229665
C8    C     C_R   0.117493 0.826541 0.047165 -0.221925
C9    C     C_R   0.885351 0.174819 0.949548 -0.222407
C10   C     C_R   0.890501 0.818157 0.953116 -0.226697
C11   C     C_R   0.127656 0.155239 0.042336 -0.230086
C12   C     C_R   0.647500 0.315691 0.093018 -0.009185
C13   C     C_R   0.422670 0.999878 0.423666 0.072454
C14   C     C_R   0.356733 0.690190 0.902644 -0.019205
C15   C     C_R   0.364749 0.299400 0.904082 -0.006518
C16   C     C_R   0.660687 0.655301 0.083187 -0.014293
C17   C     C_R   0.147497 0.815526 0.092947 -0.010764
C18   C     C_R   0.856563 0.189981 0.902899 -0.015282
C19   C     C_R   0.864775 0.799355 0.904065 -0.006541
C20   C     C_R   0.160650 0.155365 0.083215 -0.014208
C21   C     C_R   0.740195 0.187897 0.799675 -0.122213
C22   C     C_R   0.265853 0.819551 0.194187 -0.033648
C23   C     C_R   0.272824 0.175037 0.197859 -0.034857
C24   C     C_R   0.603002 0.000656 0.484036 0.066964
C25   C     C_R   0.775810 0.737408 0.765542 -0.028668
C26   C     C_R   0.239711 0.687412 0.800099 -0.032611
C27   C     C_R   0.765896 0.319649 0.194283 -0.033662
C28   C     C_R   0.772844 0.675015 0.197851 -0.034747
C29   C     C_R   0.275792 0.237439 0.765562 -0.031361
C30   C     C_R   0.773104 0.179040 0.840677 -0.287776
C31   C     C_R   0.235545 0.832971 0.148978 -0.278720
C32   C     C_R   0.243739 0.157663 0.152812 -0.255324
C33   C     C_R   0.795646 0.773176 0.814882 -0.276976
C34   C     C_R   0.273344 0.679354 0.839912 -0.253902
C35   C     C_R   0.119446 0.375559 0.439875 -0.240337
C36   C     C_R   0.735557 0.333075 0.149127 -0.277794
C37   C     C_R   0.743772 0.657620 0.152787 -0.255522
C38   C     C_R   0.295620 0.273221 0.814904 -0.281604
C39   C     C_R   0.073701 0.100872 0.935280 0.913391
C40   C     C_R   0.927012 0.898613 0.065195 0.915725
C41   C     C_R   0.926996 0.101657 0.064339 0.914826
C42   C     C_R   0.073194 0.898416 0.935452 0.915003
C43   C     C_R   0.573706 0.600866 0.935276 0.913490
C44   C     C_R   0.427011 0.398613 0.065195 0.915781
C45   C     C_R   0.426998 0.601657 0.064329 0.914884
C46   C     C_R   0.926840 0.629897 0.412610 -0.243552
C47   C     C_R   0.573204 0.398414 0.935445 0.915757
C48   C     C_R   0.551155 0.128995 0.482100 0.091413
C49   C     C_R   0.479025 0.870957 0.409481 0.111467
C50   C     C_R   0.471345 0.130487 0.427715 0.104899
C51   C     C_R   0.573789 0.873835 0.427381 0.112160
C52   C     C_R   0.051153 0.628984 0.482117 0.091678
C53   C     C_R   0.979003 0.370941 0.409557 0.111394
C54   C     C_R   0.971348 0.630476 0.427722 0.104812
C55   C     C_R   0.073770 0.373820 0.427447 0.112169
C56   C     C_R   0.529696 0.193694 0.471539 -0.233338
C57   C     C_R   0.929554 0.370177 0.407686 -0.245736
C58   C     C_R   0.509430 0.808013 0.397621 -0.234789
C59   C     C_R   0.492204 0.195117 0.439609 -0.204822
C60   C     C_R   0.557122 0.810028 0.404665 -0.215680
C61   C     C_R   0.029702 0.693680 0.471542 -0.233388
C62   C     C_R   0.009390 0.307986 0.397751 -0.234964
C63   C     C_R   0.992212 0.695105 0.439605 -0.205001
C64   C     C_R   0.057086 0.310002 0.404780 -0.213479
C65   C     C_R   0.493133 0.065244 0.437294 0.039628
C66   C     C_R   0.544175 0.936690 0.438130 0.031957
C67   C     C_R   0.535556 0.064998 0.459012 0.037890
C68   C     C_R   0.087321 0.627699 0.516535 -0.250045
C69   C     C_R   0.498121 0.935858 0.425366 0.031205
C70   C     C_R   0.993131 0.565233 0.437314 0.039446
C71   C     C_R   0.044161 0.436677 0.438181 0.031837
C72   C     C_R   0.035552 0.564987 0.459036 0.037830
C73   C     C_R   0.998108 0.435845 0.425417 0.031406
C74   C     C_R   0.971725 0.500262 0.427299 -0.051678
C75   C     C_R   0.060771 0.500695 0.460935 -0.052206
C76   C     C_R   0.471732 0.000273 0.427269 -0.051586
C77   C     C_R   0.560778 0.000705 0.460901 -0.052313
C78   C     C_R   0.898101 0.433828 0.423685 0.061627
C79   C     C_R   0.619456 0.875566 0.439837 -0.240099
C80   C     C_R   0.117355 0.564943 0.511755 0.061494
C81   C     C_R   0.131292 0.436587 0.477830 0.047174
C82   C     C_R   0.897274 0.565747 0.424445 0.074431
C83   C     C_R   0.398108 0.933835 0.423657 0.061282
C84   C     C_R   0.617359 0.064949 0.511730 0.062363
C85   C     C_R   0.631298 0.936592 0.477799 0.047902
C86   C     C_R   0.397275 0.065753 0.424430 0.074582
C87   C     C_R   0.843220 0.434796 0.440399 -0.114330
C88   C     C_R   0.162267 0.563961 0.530158 -0.103484
C89   C     C_R   0.170217 0.436555 0.509530 -0.111444
C90   C     C_R   0.426838 0.129906 0.412601 -0.243252
C91   C     C_R   0.842874 0.564934 0.440449 -0.053464
C92   C     C_R   0.343224 0.934797 0.440382 -0.114118
C93   C     C_R   0.662271 0.063963 0.530133 -0.108280
C94   C     C_R   0.670223 0.936556 0.509500 -0.117215
C95   C     C_R   0.342875 0.064937 0.440438 -0.053992
C96   C     C_R   0.817605 0.499938 0.445825 -0.290930
C97   C     C_R   0.184839 0.499511 0.534746 -0.285342
C98   C     C_R   0.317607 0.999939 0.445809 -0.290805
C99   C     C_R   0.684847 0.999512 0.534706 -0.275980
C100  C     C_R   0.617624 0.323093 0.193208 0.100062
C101  C     C_R   0.429567 0.870187 0.407635 -0.244011
C102  C     C_R   0.577837 0.376936 0.234525 -0.170907
C103  C     C_R   0.554708 0.388978 0.326894 -0.165553
C104  C     C_R   0.574768 0.352525 0.376884 -0.150849
C105  C     C_R   0.612156 0.296896 0.337509 -0.087003
C106  C     C_R   0.629062 0.277675 0.248724 -0.115253
C107  C     C_R   0.387592 0.687749 0.802761 0.104856
C108  C     C_R   0.389906 0.748604 0.751290 -0.124458
C109  C     C_R   0.419018 0.746355 0.657455 -0.111751
C110  C     C_R   0.446359 0.683677 0.614270 -0.093870
C111  C     C_R   0.444818 0.623202 0.664790 -0.120149
C112  C     C_R   0.299368 0.734628 0.322435 0.904983
C113  C     C_R   0.587324 0.127707 0.516514 -0.249310
C114  C     C_R   0.415739 0.625151 0.758655 -0.162965
C115  C     C_R   0.399406 0.306413 0.807064 0.094511
C116  C     C_R   0.414786 0.374847 0.767382 -0.166828
C117  C     C_R   0.442344 0.381537 0.674066 -0.137437
C118  C     C_R   0.454550 0.320183 0.620972 -0.081027
C119  C     C_R   0.441746 0.251908 0.661225 -0.108278
C120  C     C_R   0.415304 0.244894 0.753900 -0.157585
C121  C     C_R   0.636639 0.620654 0.172573 0.126377
C122  C     C_R   0.601074 0.658063 0.250346 -0.155221
C123  C     C_R   0.580153 0.624060 0.334374 -0.167073
C124  C     C_R   0.719290 0.263774 0.956021 0.017177
C125  C     C_R   0.597268 0.554955 0.341253 -0.063182
C126  C     C_R   0.631911 0.517531 0.263628 -0.068668
C127  C     C_R   0.647739 0.547836 0.179266 -0.216346
C128  C     C_R   0.117648 0.822908 0.193142 0.099915
C129  C     C_R   0.077891 0.876781 0.234500 -0.170625
C130  C     C_R   0.054807 0.888819 0.326861 -0.165359
C131  C     C_R   0.074891 0.852340 0.376797 -0.150629
C132  C     C_R   0.112245 0.796678 0.337389 -0.086604
C133  C     C_R   0.129102 0.777463 0.248616 -0.115751
C134  C     C_R   0.887232 0.187167 0.803006 0.108936
C135  C     C_R   0.286202 0.744870 0.037574 0.020329
C136  C     C_R   0.889519 0.247827 0.751263 -0.127914
C137  C     C_R   0.918314 0.245165 0.657425 -0.126377
C138  C     C_R   0.945394 0.182277 0.614495 -0.116708
C139  C     C_R   0.943905 0.122005 0.665279 -0.143420
C140  C     C_R   0.915122 0.124357 0.759151 -0.176962
C141  C     C_R   0.899438 0.806347 0.807047 0.094607
C142  C     C_R   0.914832 0.874772 0.767347 -0.167140
C143  C     C_R   0.942387 0.881446 0.674031 -0.135678
C144  C     C_R   0.954574 0.820089 0.620952 -0.079155
C145  C     C_R   0.941755 0.751820 0.661220 -0.109085
C146  C     C_R   0.292764 0.244143 0.037306 0.011981
C147  C     C_R   0.915318 0.744819 0.753896 -0.158426
C148  C     C_R   0.136601 0.120701 0.172590 0.126518
C149  C     C_R   0.101027 0.158089 0.250378 -0.155596
C150  C     C_R   0.080098 0.124059 0.334392 -0.166949
C151  C     C_R   0.097215 0.054946 0.341243 -0.063032
C152  C     C_R   0.131868 0.017545 0.263602 -0.069155
C153  C     C_R   0.147704 0.047879 0.179254 -0.216065
C154  C     C_2   0.738638 0.127409 0.743778 0.997407
C155  C     C_2   0.266865 0.876707 0.253795 0.958543
C156  C     C_2   0.276137 0.119551 0.258612 0.950609
C157  C     C_R   0.731459 0.711882 0.948752 0.015107
C158  C     C_2   0.816937 0.711319 0.676477 0.970799
C159  C     C_2   0.237960 0.626532 0.745076 0.959273
C160  C     C_2   0.766936 0.376799 0.253874 0.958293
C161  C     C_2   0.776148 0.619547 0.258627 0.950605
C162  C     C_2   0.316926 0.211339 0.676506 0.973201
C163  C     C_R   0.219286 0.763649 0.955867 0.018601
C164  C     C_R   0.786158 0.244902 0.037791 0.017246
C165  C     C_R   0.792788 0.744105 0.037287 0.012344
C166  C     C_R   0.231431 0.211933 0.948777 0.014958
C167  C     C_R   0.766997 0.222228 0.913005 0.049407
C168  C     C_R   0.299627 0.265256 0.323464 0.894667
C169  C     C_R   0.239769 0.788628 0.078773 0.011599
C170  C     C_R   0.248045 0.197008 0.078170 0.025730
C171  C     C_R   0.780416 0.751532 0.903407 0.025805
C172  C     C_R   0.267132 0.722327 0.912573 0.013454
C173  C     C_R   0.739754 0.288731 0.078949 0.011579
C174  C     C_R   0.748075 0.696961 0.078145 0.025810
C175  C     C_R   0.280388 0.251580 0.903431 0.027462
C176  C     C_R   0.802797 0.216999 0.950735 0.002271
C177  C     C_R   0.202638 0.791960 0.043085 0.005837
C178  C     C_R   0.213766 0.185867 0.037704 0.010303
C179  C     C_R   0.705921 0.723539 0.673762 0.917003
C180  C     C_R   0.812057 0.767324 0.947144 0.013382
C181  C     C_R   0.302933 0.717121 0.950378 0.008290
C182  C     C_R   0.702636 0.292117 0.043217 0.000569
C183  C     C_R   0.713799 0.685811 0.037676 0.010594
C184  C     C_R   0.312030 0.267369 0.947165 0.013214
C185  C     C_R   0.639873 0.316624 0.954072 0.057001
C186  C     C_R   0.362859 0.686113 0.042881 0.062526
C187  C     C_R   0.365723 0.309968 0.045854 0.058475
C188  C     C_R   0.648177 0.668168 0.949731 0.066670
C189  C     C_R   0.139828 0.816560 0.954063 0.062761
C190  C     C_R   0.200915 0.765926 0.677194 0.925802
C191  C     C_R   0.862850 0.186137 0.042964 0.061700
C192  C     C_R   0.865734 0.809953 0.045846 0.058456
C193  C     C_R   0.148154 0.168209 0.949746 0.066296
C194  C     C_R   0.614405 0.341536 0.903283 -0.128158
C195  C     C_R   0.386561 0.659250 0.095574 -0.128186
C196  C     C_R   0.387447 0.340482 0.098393 -0.129052
C197  C     C_R   0.619341 0.650602 0.901122 -0.119267
C198  C     C_R   0.114370 0.841533 0.903282 -0.127657
C199  C     C_R   0.886578 0.159278 0.095607 -0.128490
C200  C     C_R   0.887450 0.840479 0.098392 -0.129234
C201  C     C_R   0.799384 0.234660 0.322447 0.904294
C202  C     C_R   0.119327 0.150622 0.901129 -0.119374
C203  C     C_R   0.633324 0.319221 0.815771 -0.292358
C204  C     C_R   0.366818 0.680717 0.183722 -0.297319
C205  C     C_R   0.367002 0.320964 0.187167 -0.294056
C206  C     C_R   0.639133 0.671158 0.813027 -0.296350
C207  C     C_R   0.133301 0.819292 0.815742 -0.293760
C208  C     C_R   0.866864 0.180775 0.183741 -0.296934
C209  C     C_R   0.867000 0.820968 0.187168 -0.293936
C210  C     C_R   0.139124 0.171169 0.813029 -0.296838
C211  C     C_R   0.677063 0.273074 0.775607 -0.097776
C212  C     C_R   0.799628 0.765255 0.323464 0.892989
C213  C     C_R   0.324071 0.728477 0.223139 -0.077019
C214  C     C_R   0.325831 0.271141 0.225564 -0.077508
C215  C     C_R   0.689576 0.701279 0.766487 -0.103761
C216  C     C_R   0.176971 0.773051 0.775623 -0.086426
C217  C     C_R   0.824119 0.228547 0.223168 -0.077033
C218  C     C_R   0.825833 0.771138 0.225563 -0.077137
C219  C     C_R   0.189566 0.201294 0.766494 -0.104817
C220  C     C_R   0.702413 0.245758 0.826647 0.035197
C221  C     C_R   0.301117 0.758988 0.169730 0.004511
C222  C     C_R   0.305117 0.237580 0.172295 -0.001375
C223  C     C_R   0.205917 0.223545 0.673764 0.916844
C224  C     C_R   0.722385 0.711315 0.809975 0.008637
C225  C     C_R   0.202180 0.745526 0.826763 0.001900
C226  C     C_R   0.801161 0.259080 0.169796 0.004535
C227  C     C_R   0.805129 0.737564 0.172288 -0.001326
C228  C     C_R   0.222369 0.211344 0.809991 0.008527
C229  C     C_R   0.692491 0.128496 0.528758 0.925696
C230  C     C_R   0.308724 0.870590 0.464607 0.911693
C231  C     C_R   0.308527 0.129382 0.465093 0.951255
C232  C     C_R   0.696441 0.871783 0.517006 0.914594
C233  C     C_R   0.192492 0.628496 0.528760 0.930061
C234  C     C_R   0.922665 0.499870 0.423690 0.072421
C235  C     C_R   0.808722 0.370591 0.464616 0.912182
C236  C     C_R   0.808527 0.629381 0.465095 0.949759
C237  C     C_R   0.196437 0.371783 0.517024 0.913361
C238  C     C_R   0.687560 0.275992 0.911801 0.068274
C239  C     C_R   0.316496 0.729610 0.083721 0.059816
C240  C     C_R   0.320438 0.264995 0.085799 0.063237
C241  C     C_R   0.700257 0.697894 0.903285 0.066808
C242  C     C_R   0.187478 0.775865 0.911777 0.060432
C243  C     C_R   0.816500 0.229673 0.083837 0.061466
C244  C     C_R   0.820454 0.764972 0.085788 0.063136
H1    H     H_    0.080268 0.261576 0.395903 0.146990
H2    H     H_    0.216326 0.498888 0.554394 0.196626
H3    H     H_    0.275684 0.000017 0.460352 0.189614
H4    H     H_    0.716339 0.998888 0.554340 0.214410
H5    H     H_    0.145096 0.328752 0.417731 0.185425
H6    H     H_    0.915065 0.680350 0.395338 0.173141
H7    H     H_    0.916905 0.319836 0.392530 0.178010
H8    H     H_    0.089357 0.676164 0.549077 0.184650
H9    H     H_    0.645105 0.828756 0.417708 0.185450
H10   H     H_    0.415062 0.180358 0.395331 0.173307
H11   H     H_    0.416915 0.819847 0.392483 0.178326
H12   H     H_    0.976158 0.746202 0.432127 0.147143
H13   H     H_    0.589360 0.176171 0.549059 0.184643
H14   H     H_    0.615038 0.340767 0.776942 0.190200
H15   H     H_    0.383698 0.657207 0.223664 0.187834
H16   H     H_    0.382069 0.347122 0.227791 0.191304
H17   H     H_    0.615551 0.660822 0.779014 0.188592
H18   H     H_    0.115084 0.840956 0.776863 0.189540
H19   H     H_    0.883749 0.157260 0.223672 0.188192
H20   H     H_    0.882060 0.847136 0.227797 0.191637
H21   H     H_    0.115548 0.160820 0.779009 0.188937
H22   H     H_    0.574808 0.337596 0.086404 0.168410
H23   H     H_    0.996068 0.257371 0.383950 0.135195
H24   H     H_    0.427330 0.659527 0.909733 0.175155
H25   H     H_    0.432408 0.334206 0.915756 0.177096
H26   H     H_    0.585464 0.643981 0.085903 0.180228
H27   H     H_    0.074798 0.837562 0.086400 0.168240
H28   H     H_    0.927234 0.159408 0.909757 0.176058
H29   H     H_    0.932423 0.834193 0.915752 0.177085
H30   H     H_    0.085431 0.144033 0.085911 0.180216
H31   H     H_    0.800230 0.133460 0.821462 0.165848
H32   H     H_    0.209160 0.879375 0.167553 0.175031
H33   H     H_    0.224858 0.106671 0.168820 0.197411
H34   H     H_    0.040697 0.742792 0.491785 0.138708
H35   H     H_    0.825801 0.812730 0.778824 0.206843
H36   H     H_    0.301148 0.634474 0.819361 0.197927
H37   H     H_    0.709181 0.379486 0.167709 0.174832
H38   H     H_    0.724906 0.606617 0.168783 0.197351
H39   H     H_    0.325770 0.312779 0.778844 0.206159
H40   H     H_    0.566478 0.412400 0.195429 0.137971
H41   H     H_    0.524794 0.430993 0.357872 0.135758
H42   H     H_    0.561118 0.367028 0.446132 0.114546
H43   H     H_    0.627522 0.267721 0.376079 0.142294
H44   H     H_    0.655563 0.231685 0.221390 0.141717
H45   H     H_    0.580314 0.761609 0.395758 0.146935
H46   H     H_    0.369137 0.797681 0.783864 0.138184
H47   H     H_    0.420456 0.793240 0.618195 0.145099
H48   H     H_    0.468799 0.682018 0.541679 0.113375
H49   H     H_    0.466149 0.574773 0.631175 0.113315
H50   H     H_    0.414653 0.577728 0.796902 0.123922
H51   H     H_    0.403285 0.422716 0.808520 0.135093
H52   H     H_    0.452525 0.434190 0.643004 0.120444
H53   H     H_    0.472402 0.326153 0.549081 0.116102
H54   H     H_    0.448599 0.203864 0.622400 0.162322
H55   H     H_    0.403869 0.192000 0.784157 0.143860
H56   H     H_    0.476142 0.246214 0.432148 0.146913
H57   H     H_    0.589636 0.712888 0.245599 0.139885
H58   H     H_    0.551295 0.651056 0.394634 0.113904
H59   H     H_    0.583222 0.530090 0.406561 0.119691
H60   H     H_    0.646351 0.464838 0.268764 0.187101
H61   H     H_    0.673694 0.517439 0.119533 0.143645
H62   H     H_    0.066524 0.912272 0.195439 0.138082
H63   H     H_    0.024913 0.930850 0.357871 0.136330
H64   H     H_    0.061275 0.866840 0.446038 0.114517
H65   H     H_    0.127619 0.767474 0.375927 0.142234
H66   H     H_    0.155592 0.731466 0.221246 0.141302
H67   H     H_    0.496122 0.757404 0.383779 0.135933
H68   H     H_    0.868935 0.297057 0.783631 0.139442
H69   H     H_    0.919705 0.291891 0.617964 0.149078
H70   H     H_    0.967589 0.180297 0.541898 0.119597
H71   H     H_    0.965036 0.073418 0.631856 0.120284
H72   H     H_    0.914046 0.077074 0.797604 0.127695
H73   H     H_    0.903344 0.922648 0.808472 0.134142
H74   H     H_    0.952579 0.934088 0.642953 0.118976
H75   H     H_    0.972423 0.826059 0.549061 0.116146
H76   H     H_    0.948592 0.703772 0.622406 0.162412
H77   H     H_    0.903871 0.691931 0.784166 0.143863
H78   H     H_    0.540681 0.242810 0.491795 0.138759
H79   H     H_    0.089587 0.212917 0.245652 0.139661
H80   H     H_    0.051233 0.151041 0.394664 0.114320
H81   H     H_    0.083164 0.030061 0.406539 0.119967
H82   H     H_    0.146319 0.964852 0.268711 0.187222
H83   H     H_    0.173668 0.017500 0.119509 0.143731
H84   H     H_    0.820148 0.116008 0.674065 0.295864
H85   H     H_    0.311264 0.934146 0.295259 0.346618
H86   H     H_    0.237797 0.042802 0.352021 0.355919
H87   H     H_    0.881165 0.735559 0.557226 0.333172
H88   H     H_    0.277765 0.544607 0.661708 0.339867
H89   H     H_    0.775682 0.500017 0.460367 0.189675
H90   H     H_    0.811372 0.434237 0.295260 0.346629
H91   H     H_    0.737788 0.542854 0.352107 0.355985
H92   H     H_    0.381155 0.235568 0.557253 0.333521
O1    O     O_R   0.746490 0.236330 0.638080 -0.631304
O2    O     O_R   0.325830 0.813840 0.483730 -0.642478
O3    O     O_R   0.325830 0.186160 0.483730 -0.638593
O4    O     O_R   0.674170 0.813840 0.516270 -0.642733
O5    O     O_R   0.174170 0.686160 0.516270 -0.659434
O6    O     O_R   0.825830 0.313840 0.483730 -0.644666
O7    O     O_R   0.825830 0.686160 0.483730 -0.639460
O8    O     O_R   0.174170 0.313840 0.516270 -0.641218
O9    O     O_R   0.739960 0.127620 0.525000 -0.589632
O10   O     O_R   0.260040 0.872380 0.475000 -0.615478
O11   O     O_R   0.260040 0.127620 0.475000 -0.629934
O12   O     O_R   0.253510 0.763670 0.361920 -0.633452
O13   O     O_R   0.739960 0.872380 0.525000 -0.612299
O14   O     O_R   0.239960 0.627620 0.525000 -0.610857
O15   O     O_R   0.760040 0.372380 0.475000 -0.615072
O16   O     O_R   0.760040 0.627620 0.475000 -0.630439
O17   O     O_R   0.239960 0.372380 0.525000 -0.622320
O18   O     O_R   0.680700 0.294870 0.629350 -0.628483
O19   O     O_R   0.319300 0.705130 0.370650 -0.636581
O20   O     O_R   0.319300 0.294870 0.370650 -0.642374
O21   O     O_R   0.680700 0.705130 0.629350 -0.623389
O22   O     O_R   0.180700 0.794870 0.629350 -0.630844
O23   O     O_R   0.253510 0.236330 0.361920 -0.642662
O24   O     O_R   0.819300 0.205130 0.370650 -0.635946
O25   O     O_R   0.819300 0.794870 0.370650 -0.642443
O26   O     O_R   0.180700 0.205130 0.629350 -0.622088
O27   O     O_R   0.062020 0.072840 0.007170 -0.631957
O28   O     O_R   0.937980 0.927160 0.992830 -0.630012
O29   O     O_R   0.937980 0.072840 0.992830 -0.630994
O30   O     O_R   0.062020 0.927160 0.007170 -0.630803
O31   O     O_R   0.562020 0.572840 0.007170 -0.631949
O32   O     O_R   0.437980 0.427160 0.992830 -0.629956
O33   O     O_R   0.437980 0.572840 0.992830 -0.630988
O34   O     O_R   0.746490 0.763670 0.638080 -0.612355
O35   O     O_R   0.562020 0.427160 0.007170 -0.630713
O36   O     O_R   0.947860 0.073950 0.109290 -0.620561
O37   O     O_R   0.052140 0.926050 0.890710 -0.619083
O38   O     O_R   0.052140 0.073950 0.890710 -0.616677
O39   O     O_R   0.947860 0.926050 0.109290 -0.623482
O40   O     O_R   0.447860 0.573950 0.109290 -0.620820
O41   O     O_R   0.552140 0.426050 0.890710 -0.619194
O42   O     O_R   0.552140 0.573950 0.890710 -0.617005
O43   O     O_R   0.447860 0.426050 0.109290 -0.623771
O44   O     O_2   0.695257 0.107857 0.751455 -0.599861
O45   O     O_R   0.246490 0.736330 0.638080 -0.623432
O46   O     O_R   0.785819 0.091975 0.682424 -0.773053
O47   O     O_2   0.225994 0.911539 0.300141 -0.657323
O48   O     O_R   0.315060 0.891978 0.255153 -0.811852
O49   O     O_2   0.318404 0.110377 0.261367 -0.657979
O50   O     O_R   0.230977 0.077237 0.311915 -0.787463
O51   O     O_2   0.817212 0.648295 0.656282 -0.648737
O52   O     O_R   0.854746 0.759425 0.615372 -0.802373
O53   O     O_2   0.195908 0.612286 0.743882 -0.646159
O54   O     O_R   0.284106 0.584390 0.696189 -0.816859
O55   O     O_2   0.726073 0.411636 0.300246 -0.657302
O56   O     O_R   0.753510 0.263670 0.361920 -0.633679
O57   O     O_R   0.815146 0.392057 0.255184 -0.812141
O58   O     O_2   0.818416 0.610365 0.261376 -0.658226
O59   O     O_R   0.730977 0.577265 0.311968 -0.787471
O60   O     O_2   0.317204 0.148311 0.656324 -0.647913
O61   O     O_R   0.354735 0.259440 0.615393 -0.805440
O62   O     O_R   0.753510 0.736330 0.361920 -0.643140
O63   O     O_R   0.246490 0.263670 0.638080 -0.615952
O64   O     O_R   0.674170 0.186160 0.516270 -0.661485
Zn1   Zn    Zn3+2 0.792340 0.208750 0.507670 0.993170
Zn2   Zn    Zn3+2 0.494040 0.500000 0.919480 0.929144
Zn3   Zn    Zn3+2 0.005960 0.000000 0.080520 0.928601
Zn4   Zn    Zn3+2 0.994040 0.000000 0.919480 0.930021
Zn5   Zn    Zn3+2 0.207660 0.791250 0.492330 0.977665
Zn6   Zn    Zn3+2 0.207660 0.208750 0.492330 0.984920
Zn7   Zn    Zn3+2 0.792340 0.791250 0.507670 1.006854
Zn8   Zn    Zn3+2 0.292340 0.708750 0.507670 0.988445
Zn9   Zn    Zn3+2 0.707660 0.291250 0.492330 0.977544
Zn10  Zn    Zn3+2 0.707660 0.708750 0.492330 0.983675
Zn11  Zn    Zn3+2 0.292340 0.291250 0.507670 0.991162
Zn12  Zn    Zn3+2 0.505960 0.500000 0.080520 0.927712

loop_
_geom_bond_atom_site_label_1
_geom_bond_atom_site_label_2
_ccdc_geom_bond_type
C131  H64   S    
C126  C127  A    
C61   H34   S    
C211  C220  A    
C170  C178  A    
C159  O54   S    
C111  H49   S    
C50   C59   A    
C8    H27   S    
C137  H69   S    
C52   C61   A    
C54   C63   A    
O39   Zn3   S    
C143  C144  A    
O40   Zn12  S    
C87   C235  S    
C108  C109  A    
C163  C242  A    
O64   Zn9   S    
C61   C63   A    
C110  C111  A    
C46   H6    S    
C62   C64   A    
C214  C222  A    
C91   C96   A    
C50   C90   A    
C21   C220  A    
C70   C74   A    
C4    C12   A    
C24   C85   A    
C88   C97   A    
C161  O58   D    
O43   Zn12  S    
C136  H68   S    
C60   H45   S    
O18   Zn9   S    
C30   H31   S    
C19   C141  S    
C162  O61   S    
O7    Zn7   S    
C220  C238  A    
C188  C241  A    
C5    C186  A    
O10   Zn5   S    
C31   H32   S    
O24   Zn1   S    
C104  C105  A    
C138  H70   S    
C22   C221  A    
C11   C20   A    
C44   C196  S    
C236  O7    A    
C230  O10   A    
C45   O33   A    
C42   C198  S    
C154  O46   S    
C71   C73   A    
C237  O17   A    
C225  C242  A    
C82   C91   A    
C51   C66   A    
C124  C182  A    
C52   C72   A    
C7    C188  A    
C54   C70   A    
C23   C222  A    
C15   C184  A    
C79   H9    S    
C164  C173  A    
C43   C197  S    
C47   O35   A    
C163  C172  A    
C38   H39   S    
C14   C107  S    
C9    H28   S    
C146  C240  A    
C173  C182  A    
O1    Zn1   S    
H86   O50   S    
C15   C115  S    
O13   Zn7   S    
C148  C153  A    
C119  H54   S    
C133  H66   S    
C79   C85   A    
C209  H20   S    
O19   Zn8   S    
C17   C177  A    
C208  C217  A    
C66   C77   A    
C186  C239  A    
C57   C78   A    
C11   C193  A    
C144  C145  A    
C139  C140  A    
C147  H77   S    
C223  O26   A    
C100  C106  A    
C200  C209  A    
C56   C59   A    
C40   O28   A    
O38   Zn4   S    
C130  C131  A    
C112  O12   A    
C80   C88   A    
C157  C171  A    
C8    C17   A    
C91   C236  S    
C207  C216  A    
C212  O25   A    
C84   C93   A    
C192  C200  A    
C48   C67   A    
C86   C95   A    
C141  C147  A    
C59   H56   S    
C229  O9    A    
C24   C77   A    
C156  O49   D    
C39   C202  S    
H84   O46   S    
C2    C81   A    
C9    C191  A    
C164  C243  A    
C4    H22   S    
C3    C228  A    
C55   C71   A    
C2    C75   A    
C233  O14   A    
C104  H42   S    
C18   C176  A    
C78   C87   A    
C168  O20   A    
H91   O59   S    
C116  H51   S    
C105  C106  A    
C67   C77   A    
C128  C129  A    
C187  C240  A    
C226  C243  A    
C94   C232  S    
C88   C233  S    
C96   H89   S    
C3    C193  A    
C208  H19   S    
C221  C239  A    
C101  H11   S    
C36   H37   S    
C204  H15   S    
C224  C241  A    
C26   C225  A    
C115  C116  A    
C69   C76   A    
C85   C94   A    
C168  C214  S    
C103  H41   S    
C46   C82   A    
C108  H46   S    
C172  C181  A    
O16   Zn10  S    
C190  O22   A    
C29   C38   A    
C107  C108  A    
C20   C148  S    
C132  H65   S    
C57   H7    S    
O31   Zn12  S    
C201  O56   A    
C90   H10   S    
C152  H82   S    
C87   C96   A    
C203  C211  A    
C213  C221  A    
C72   C75   A    
C169  C177  A    
C28   C161  S    
C22   C155  S    
O25   Zn7   S    
C206  H17   S    
C227  C244  A    
C165  C174  A    
C155  O47   D    
C210  C219  A    
C158  O51   D    
C231  O11   A    
O33   Zn2   S    
C153  H83   S    
O45   Zn8   S    
C124  C238  A    
C63   H12   S    
C78   C234  A    
C112  O19   A    
C39   O27   A    
C139  H71   S    
O29   Zn4   S    
C74   C234  A    
C135  C181  A    
O30   Zn3   S    
O12   Zn5   S    
C129  C130  A    
C207  H18   S    
C83   C101  A    
C198  C207  A    
C142  C143  A    
C29   C162  S    
C7    H26   S    
C136  C137  A    
O36   Zn3   S    
H85   O48   S    
C217  C226  A    
C146  C184  A    
C159  O53   D    
C117  C118  A    
O56   Zn9   S    
C28   C37   A    
C199  C208  A    
C18   C134  S    
O42   Zn2   S    
C102  C103  A    
C50   C65   A    
C51   C79   A    
C32   H33   S    
C179  O34   A    
C9    C18   A    
C36   C173  A    
C126  H60   S    
C152  C153  A    
C179  C215  S    
C25   C158  S    
C232  O4    A    
C150  C151  A    
C230  O2    A    
C49   C69   A    
C51   C60   A    
C29   C228  A    
C25   C33   A    
O28   Zn4   S    
C205  H16   S    
C206  C215  A    
C190  O45   A    
C45   C195  S    
O26   Zn6   S    
C187  C196  A    
C1    C211  S    
C73   C74   A    
C185  C194  A    
C41   C199  S    
C215  C224  A    
C197  C206  A    
C120  H55   S    
C168  O23   A    
O9    Zn1   S    
C43   O42   A    
C166  C175  A    
C105  H43   S    
C65   C76   A    
C106  H44   S    
C44   O32   A    
C45   O40   A    
C95   C231  S    
C121  C127  A    
C49   C101  A    
C123  C125  A    
O3    Zn11  S    
C130  H63   S    
C41   O36   A    
O14   Zn8   S    
C25   C224  A    
C32   C170  A    
C37   C174  A    
O4    Zn10  S    
C12   C182  A    
C65   C67   A    
C163  C177  A    
C151  C152  A    
C42   O37   A    
C166  C178  A    
C93   C99   A    
C44   O43   A    
C212  O62   A    
C81   C89   A    
C68   H8    S    
C99   H4    S    
C23   C156  S    
C6    H25   S    
C113  H13   S    
C28   C227  A    
C145  C147  A    
C95   C98   A    
C89   C237  S    
C123  H58   S    
C97   H2    S    
C53   C57   A    
C20   C178  A    
C195  C204  A    
C31   C169  A    
C6    C187  A    
C10   C192  A    
C193  C202  A    
O15   Zn9   S    
C4    C185  A    
C219  C228  A    
C16   C121  S    
C11   H30   S    
C144  H75   S    
C102  H40   S    
C124  C167  A    
C129  H62   S    
O63   Zn11  S    
C8    C189  A    
C46   C54   A    
C160  O57   S    
C149  H79   S    
C5    C14   A    
C154  O44   D    
C161  O59   S    
C158  O52   S    
O20   Zn11  S    
C162  O60   D    
C7    C16   A    
C114  H50   S    
C210  H21   S    
C156  O50   S    
C82   C234  A    
C86   C90   A    
C125  C126  A    
C131  C132  A    
C33   C171  A    
O6    Zn1   S    
C218  C227  A    
C14   C181  A    
C34   C172  A    
C109  H47   S    
C110  H48   S    
H88   O54   S    
C58   H67   S    
C174  C183  A    
C30   C167  A    
C119  C120  A    
C17   C128  S    
C27   C36   A    
C40   C200  S    
C21   C30   A    
C13   C83   A    
C216  C225  A    
C191  C243  A    
C23   C32   A    
C149  C150  A    
C150  H80   S    
C38   C175  A    
C43   O31   A    
C188  C197  A    
C222  C240  A    
C164  C176  A    
C111  C114  A    
C235  O15   A    
C135  C169  A    
C12   C100  S    
C138  C139  A    
O22   Zn5   S    
C219  C223  S    
C5    H24   S    
C103  C104  A    
O41   Zn2   S    
C157  C183  A    
C128  C133  A    
C190  C216  S    
C19   C180  A    
C48   C113  A    
C175  C184  A    
C127  H61   S    
C189  C198  A    
C68   C80   A    
C84   C113  A    
C192  C244  A    
O35   Zn12  S    
C179  O21   A    
C122  H57   S    
C47   C194  S    
C237  O8    A    
C231  O3    A    
C35   C81   A    
C16   C183  A    
C92   C98   A    
C107  C114  A    
C83   C92   A    
O37   Zn4   S    
C209  C218  A    
O21   Zn10  S    
C143  H74   S    
C191  C199  A    
C134  C140  A    
C66   C69   A    
C140  H72   S    
C35   H5    S    
C116  C117  A    
C196  C205  A    
C157  C241  A    
C118  C119  A    
O23   Zn6   S    
C6    C15   A    
C26   C34   A    
C64   H1    S    
C135  C239  A    
C132  C133  A    
C1    O18   A    
C21   C154  S    
C39   O38   A    
C151  H81   S    
C52   C68   A    
C203  H14   S    
C42   O30   A    
C235  O6    A    
O34   Zn7   S    
C202  C210  A    
C56   H78   S    
C58   C60   A    
O5    Zn5   S    
C145  H76   S    
C233  O5    A    
C22   C31   A    
C117  H52   S    
C35   C55   A    
C186  C195  A    
C26   C159  S    
C40   O39   A    
C148  C149  A    
C134  C136  A    
C27   C160  S    
C204  C213  A    
C201  O24   A    
O62   Zn10  S    
C49   C58   A    
C89   C97   A    
C125  H59   S    
C13   C86   A    
C160  O55   D    
C62   H23   S    
O27   Zn3   S    
C53   C62   A    
C185  C238  A    
C13   C76   A    
C92   C230  S    
C55   C64   A    
C100  C102  A    
C121  C122  A    
C165  C244  A    
C112  C213  S    
C189  C242  A    
C115  C120  A    
C146  C170  A    
C236  O16   A    
C171  C180  A    
C47   O41   A    
C1    O1    A    
H90   O57   S    
C232  O13   A    
H87   O52   S    
C33   H35   S    
C10   C19   A    
C93   C229  S    
C48   C56   A    
C34   H36   S    
C118  H53   S    
C142  H73   S    
O8    Zn6   S    
C53   C73   A    
C205  C214  A    
O11   Zn6   S    
C27   C226  A    
C223  O63   A    
C137  C138  A    
C24   C84   A    
C155  O48   S    
C201  C217  S    
C98   H3    S    
C41   O29   A    
C141  C142  A    
C71   C75   A    
C212  C218  S    
C94   C99   A    
C194  C203  A    
O32   Zn2   S    
O17   Zn11  S    
C229  O64   A    
C2    C80   A    
H92   O61   S    
C109  C110  A    
C165  C180  A    
C70   C72   A    
C10   H29   S    
C122  C123  A    
C37   H38   S    
O2    Zn8   S    
C3    C166  A    
C167  C176  A    
