data_str_m3_o40_o41_f0_fof.sym.20
_audit_creation_date              2012-12-10T16:37:57-0500
_audit_creation_method            fapswitch 2.2
_symmetry_space_group_name_H-M    P1
_symmetry_Int_Tables_number       1
_space_group_crystal_system       monoclinic
_cell_length_a                    28.142483
_cell_length_b                    18.45241
_cell_length_c                    17.028257
_cell_angle_alpha                 90.0
_cell_angle_beta                  60.662278
_cell_angle_gamma                 90.0
_cell_volume                      7708.61063174

loop_
_atom_site_label
_atom_site_type_symbol
_atom_type_description
_atom_site_fract_x
_atom_site_fract_y
_atom_site_fract_z
_atom_type_partial_charge
C1    C     C_R   0.706084 0.277475 0.673154 0.914342
C2    C     C_R   0.084502 0.500000 0.543940 0.016872
C3    C     C_R   0.192383 0.211879 0.906583 0.077609
C4    C     C_R   0.612408 0.315987 0.047270 -0.240813
C5    C     C_R   0.387592 0.684013 0.952730 -0.240813
C6    C     C_R   0.387592 0.315987 0.952730 -0.240813
C7    C     C_R   0.612408 0.684013 0.047270 -0.240812
C8    C     C_R   0.112408 0.815987 0.047270 -0.240813
C9    C     C_R   0.887592 0.184013 0.952730 -0.240813
C10   C     C_R   0.887592 0.815987 0.952730 -0.240813
C11   C     C_R   0.112408 0.184013 0.047270 -0.240812
C12   C     C_R   0.639395 0.298778 0.095223 0.096764
C13   C     C_R   0.415498 0.000000 0.456060 0.016872
C14   C     C_R   0.360606 0.701222 0.904777 0.096765
C15   C     C_R   0.360605 0.298778 0.904777 0.096765
C16   C     C_R   0.639395 0.701222 0.095223 0.096764
C17   C     C_R   0.139395 0.798778 0.095223 0.096764
C18   C     C_R   0.860605 0.201221 0.904777 0.096764
C19   C     C_R   0.860605 0.798778 0.904777 0.096765
C20   C     C_R   0.139395 0.201222 0.095223 0.096765
C21   C     C_R   0.775455 0.278944 0.764955 -0.201906
C22   C     C_R   0.224545 0.721055 0.235044 -0.201906
C23   C     C_R   0.224545 0.278944 0.235045 -0.201906
C24   C     C_R   0.584503 0.000000 0.543940 0.016872
C25   C     C_R   0.775455 0.721055 0.764955 -0.201907
C26   C     C_R   0.275455 0.778944 0.764955 -0.201906
C27   C     C_R   0.724545 0.221056 0.235044 -0.201906
C28   C     C_R   0.724545 0.778944 0.235045 -0.201906
C29   C     C_R   0.275455 0.221055 0.764955 -0.201906
C30   C     C_R   0.804256 0.265751 0.810459 -0.181198
C31   C     C_R   0.195744 0.734249 0.189541 -0.181199
C32   C     C_R   0.195744 0.265751 0.189541 -0.181198
C33   C     C_R   0.804256 0.734249 0.810459 -0.181198
C34   C     C_R   0.304256 0.765751 0.810459 -0.181199
C35   C     C_R   0.075004 0.369894 0.565975 -0.037379
C36   C     C_R   0.695744 0.234249 0.189541 -0.181198
C37   C     C_R   0.695744 0.765751 0.189541 -0.181198
C38   C     C_R   0.304256 0.234249 0.810459 -0.181198
C39   C     C_R   0.071236 0.103476 0.937118 0.893875
C40   C     C_R   0.928764 0.896524 0.062882 0.893876
C41   C     C_R   0.928764 0.103476 0.062882 0.893875
C42   C     C_R   0.071236 0.896524 0.937118 0.893875
C43   C     C_R   0.571236 0.603476 0.937118 0.893875
C44   C     C_R   0.428764 0.396523 0.062882 0.893875
C45   C     C_R   0.428764 0.603476 0.062882 0.893875
C46   C     C_R   0.924996 0.630106 0.434025 -0.037379
C47   C     C_R   0.571236 0.396524 0.937118 0.893875
C48   C     C_R   0.538103 0.131704 0.531927 0.063200
C49   C     C_R   0.461897 0.868296 0.468073 0.063200
C50   C     C_R   0.461897 0.131704 0.468073 0.063199
C51   C     C_R   0.538103 0.868296 0.531927 0.063200
C52   C     C_R   0.038103 0.631704 0.531928 0.063200
C53   C     C_R   0.961897 0.368296 0.468073 0.063200
C54   C     C_R   0.961897 0.631704 0.468073 0.063199
C55   C     C_R   0.038103 0.368296 0.531927 0.063200
C56   C     C_R   0.517882 0.196938 0.517248 -0.209367
C57   C     C_R   0.924996 0.369894 0.434024 -0.037379
C58   C     C_R   0.482118 0.803062 0.482752 -0.209367
C59   C     C_R   0.482118 0.196938 0.482752 -0.209367
C60   C     C_R   0.517881 0.803062 0.517248 -0.209367
C61   C     C_R   0.017881 0.696938 0.517248 -0.209367
C62   C     C_R   0.982118 0.303062 0.482752 -0.209367
C63   C     C_R   0.982118 0.696938 0.482753 -0.209366
C64   C     C_R   0.017881 0.303062 0.517248 -0.209366
C65   C     C_R   0.479858 0.065908 0.486571 0.027296
C66   C     C_R   0.520142 0.934092 0.513429 0.027296
C67   C     C_R   0.520142 0.065908 0.513429 0.027296
C68   C     C_R   0.075004 0.630106 0.565976 -0.037379
C69   C     C_R   0.479858 0.934092 0.486571 0.027296
C70   C     C_R   0.979858 0.565908 0.486571 0.027296
C71   C     C_R   0.020142 0.434092 0.513429 0.027296
C72   C     C_R   0.020141 0.565908 0.513429 0.027296
C73   C     C_R   0.979858 0.434092 0.486571 0.027296
C74   C     C_R   0.959208 0.500000 0.474561 -0.058852
C75   C     C_R   0.040792 0.500000 0.525439 -0.058852
C76   C     C_R   0.459208 0.000000 0.474561 -0.058852
C77   C     C_R   0.540792 0.000000 0.525439 -0.058852
C78   C     C_R   0.893986 0.433978 0.445905 0.004172
C79   C     C_R   0.575004 0.869894 0.565975 -0.037379
C80   C     C_R   0.106014 0.566022 0.554095 0.004172
C81   C     C_R   0.106014 0.433978 0.554095 0.004172
C82   C     C_R   0.893986 0.566022 0.445905 0.004172
C83   C     C_R   0.393986 0.933978 0.445905 0.004172
C84   C     C_R   0.606014 0.066022 0.554095 0.004172
C85   C     C_R   0.606014 0.933978 0.554095 0.004172
C86   C     C_R   0.393986 0.066022 0.445905 0.004172
C87   C     C_R   0.843334 0.434976 0.445147 -0.106684
C88   C     C_R   0.156666 0.565024 0.554853 -0.106684
C89   C     C_R   0.156666 0.434976 0.554853 -0.106684
C90   C     C_R   0.424996 0.130106 0.434024 -0.037379
C91   C     C_R   0.843334 0.565024 0.445147 -0.106684
C92   C     C_R   0.343334 0.934976 0.445147 -0.106684
C93   C     C_R   0.656666 0.065024 0.554853 -0.106684
C94   C     C_R   0.656666 0.934976 0.554853 -0.106684
C95   C     C_R   0.343334 0.065024 0.445147 -0.106684
C96   C     C_R   0.820209 0.500000 0.441710 -0.304890
C97   C     C_R   0.179791 0.500000 0.558290 -0.304891
C98   C     C_R   0.320209 0.000000 0.441710 -0.304891
C99   C     C_R   0.679791 0.000000 0.558290 -0.304891
C100  C     C_R   0.062706 0.323001 0.645020 0.136924
C101  C     C_R   0.424996 0.869894 0.434024 -0.037379
C102  C     C_R   0.069781 0.247386 0.637745 -0.072590
C103  C     C_R   0.052205 0.204958 0.715004 -0.161876
C104  C     C_R   0.029722 0.237707 0.799712 -0.138429
C105  C     C_R   0.023716 0.312749 0.807645 -0.134951
C106  C     C_R   0.039721 0.355207 0.730893 -0.167542
C107  C     C_R   0.937294 0.676999 0.354980 0.136924
C108  C     C_R   0.960279 0.644793 0.269107 -0.167543
C109  C     C_R   0.976285 0.687252 0.192355 -0.134951
C110  C     C_R   0.970278 0.762294 0.200289 -0.138430
C111  C     C_R   0.947794 0.795043 0.284997 -0.161875
C112  C     C_R   0.293916 0.722525 0.326846 0.914342
C113  C     C_R   0.575004 0.130106 0.565975 -0.037379
C114  C     C_R   0.930218 0.752614 0.362256 -0.072590
C115  C     C_R   0.937294 0.323001 0.354980 0.136924
C116  C     C_R   0.930218 0.247386 0.362255 -0.072589
C117  C     C_R   0.947795 0.204957 0.284996 -0.161876
C118  C     C_R   0.970278 0.237706 0.200288 -0.138430
C119  C     C_R   0.976284 0.312749 0.192355 -0.134951
C120  C     C_R   0.960279 0.355207 0.269107 -0.167543
C121  C     C_R   0.062706 0.676999 0.645021 0.136924
C122  C     C_R   0.039721 0.644793 0.730893 -0.167543
C123  C     C_R   0.023716 0.687251 0.807645 -0.134952
C124  C     C_R   0.721045 0.269118 0.953957 -0.032293
C125  C     C_R   0.029722 0.762293 0.799712 -0.138428
C126  C     C_R   0.052205 0.795042 0.715004 -0.161878
C127  C     C_R   0.069781 0.752614 0.637745 -0.072588
C128  C     C_R   0.562706 0.823001 0.645020 0.136924
C129  C     C_R   0.569781 0.747386 0.637745 -0.072590
C130  C     C_R   0.552205 0.704958 0.715004 -0.161877
C131  C     C_R   0.529722 0.737707 0.799712 -0.138428
C132  C     C_R   0.523716 0.812749 0.807645 -0.134951
C133  C     C_R   0.539721 0.855208 0.730893 -0.167543
C134  C     C_R   0.437294 0.176999 0.354980 0.136924
C135  C     C_R   0.278955 0.730882 0.046043 -0.032293
C136  C     C_R   0.460279 0.144793 0.269107 -0.167543
C137  C     C_R   0.476284 0.187251 0.192355 -0.134951
C138  C     C_R   0.470278 0.262293 0.200288 -0.138428
C139  C     C_R   0.447795 0.295042 0.284996 -0.161877
C140  C     C_R   0.430219 0.252613 0.362255 -0.072590
C141  C     C_R   0.437294 0.823001 0.354980 0.136924
C142  C     C_R   0.430218 0.747386 0.362255 -0.072589
C143  C     C_R   0.447795 0.704957 0.284996 -0.161877
C144  C     C_R   0.470278 0.737706 0.200288 -0.138429
C145  C     C_R   0.476285 0.812749 0.192355 -0.134951
C146  C     C_R   0.278955 0.269118 0.046043 -0.032293
C147  C     C_R   0.460279 0.855207 0.269107 -0.167543
C148  C     C_R   0.562706 0.176999 0.645020 0.136924
C149  C     C_R   0.539721 0.144793 0.730893 -0.167543
C150  C     C_R   0.523716 0.187251 0.807645 -0.134951
C151  C     C_R   0.529722 0.262294 0.799712 -0.138428
C152  C     C_R   0.552205 0.295042 0.715004 -0.161877
C153  C     C_R   0.569782 0.252614 0.637745 -0.072589
C154  C     C_R   0.721045 0.730882 0.953957 -0.032293
C155  C     C_R   0.221045 0.769118 0.953956 -0.032293
C156  C     C_R   0.778955 0.230882 0.046043 -0.032293
C157  C     C_R   0.778955 0.769118 0.046043 -0.032293
C158  C     C_R   0.221045 0.230882 0.953957 -0.032293
C159  C     C_R   0.777648 0.252567 0.904277 0.068026
C160  C     C_R   0.293916 0.277475 0.326846 0.914342
C161  C     C_R   0.222352 0.747433 0.095722 0.068026
C162  C     C_R   0.222352 0.252567 0.095722 0.068026
C163  C     C_R   0.777648 0.747433 0.904277 0.068026
C164  C     C_R   0.277648 0.752567 0.904277 0.068026
C165  C     C_R   0.722352 0.247433 0.095722 0.068026
C166  C     C_R   0.722352 0.752567 0.095722 0.068026
C167  C     C_R   0.277648 0.247433 0.904277 0.068026
C168  C     C_R   0.806358 0.229451 0.950095 0.035297
C169  C     C_R   0.193642 0.770549 0.049905 0.035297
C170  C     C_R   0.193642 0.229451 0.049905 0.035297
C171  C     C_R   0.706084 0.722525 0.673154 0.914342
C172  C     C_R   0.806358 0.770549 0.950095 0.035297
C173  C     C_R   0.306358 0.729451 0.950095 0.035297
C174  C     C_R   0.693642 0.270549 0.049905 0.035297
C175  C     C_R   0.693642 0.729451 0.049905 0.035297
C176  C     C_R   0.306358 0.270549 0.950095 0.035297
C177  C     C_R   0.638453 0.313909 0.953117 0.051598
C178  C     C_R   0.361547 0.686091 0.046883 0.051597
C179  C     C_R   0.361546 0.313909 0.046883 0.051597
C180  C     C_R   0.638453 0.686091 0.953117 0.051598
C181  C     C_R   0.138453 0.813909 0.953117 0.051597
C182  C     C_R   0.206084 0.777475 0.673154 0.914342
C183  C     C_R   0.861547 0.186091 0.046883 0.051598
C184  C     C_R   0.861547 0.813909 0.046883 0.051598
C185  C     C_R   0.138453 0.186091 0.953117 0.051598
C186  C     C_R   0.613936 0.341750 0.902753 -0.134046
C187  C     C_R   0.386064 0.658250 0.097246 -0.134046
C188  C     C_R   0.386064 0.341750 0.097246 -0.134046
C189  C     C_R   0.613936 0.658250 0.902753 -0.134046
C190  C     C_R   0.113936 0.841750 0.902753 -0.134046
C191  C     C_R   0.886064 0.158250 0.097246 -0.134046
C192  C     C_R   0.886064 0.841750 0.097246 -0.134046
C193  C     C_R   0.793916 0.222525 0.326846 0.914342
C194  C     C_R   0.113936 0.158250 0.902753 -0.134046
C195  C     C_R   0.636832 0.327576 0.812488 -0.294069
C196  C     C_R   0.363168 0.672424 0.187512 -0.294069
C197  C     C_R   0.363168 0.327576 0.187512 -0.294070
C198  C     C_R   0.636832 0.672424 0.812488 -0.294070
C199  C     C_R   0.136832 0.827576 0.812488 -0.294070
C200  C     C_R   0.863168 0.172424 0.187512 -0.294069
C201  C     C_R   0.863168 0.827576 0.187512 -0.294069
C202  C     C_R   0.136832 0.172424 0.812488 -0.294069
C203  C     C_R   0.687257 0.296586 0.766876 -0.122246
C204  C     C_R   0.793916 0.777475 0.326846 0.914342
C205  C     C_R   0.312743 0.703414 0.233124 -0.122246
C206  C     C_R   0.312743 0.296586 0.233124 -0.122246
C207  C     C_R   0.687257 0.703414 0.766876 -0.122246
C208  C     C_R   0.187257 0.796586 0.766876 -0.122246
C209  C     C_R   0.812743 0.203414 0.233124 -0.122246
C210  C     C_R   0.812743 0.796586 0.233124 -0.122246
C211  C     C_R   0.187257 0.203414 0.766876 -0.122246
C212  C     C_R   0.718549 0.285437 0.811585 0.080266
C213  C     C_R   0.281451 0.714563 0.188415 0.080266
C214  C     C_R   0.281451 0.285437 0.188415 0.080266
C215  C     C_R   0.206084 0.222525 0.673154 0.914342
C216  C     C_R   0.718549 0.714563 0.811585 0.080266
C217  C     C_R   0.218549 0.785437 0.811585 0.080266
C218  C     C_R   0.781451 0.214563 0.188415 0.080266
C219  C     C_R   0.781451 0.785437 0.188415 0.080266
C220  C     C_R   0.218549 0.214563 0.811585 0.080266
C221  C     C_R   0.691238 0.129286 0.534655 0.912934
C222  C     C_R   0.308762 0.870714 0.465345 0.912934
C223  C     C_R   0.308762 0.129286 0.465345 0.912934
C224  C     C_R   0.691238 0.870714 0.534655 0.912934
C225  C     C_R   0.191238 0.629286 0.534655 0.912934
C226  C     C_R   0.915498 0.500000 0.456060 0.016872
C227  C     C_R   0.808762 0.370714 0.465345 0.912934
C228  C     C_R   0.808762 0.629286 0.465345 0.912934
C229  C     C_R   0.191238 0.370714 0.534655 0.912934
C230  C     C_R   0.692383 0.288121 0.906583 0.077609
C231  C     C_R   0.307617 0.711879 0.093417 0.077610
C232  C     C_R   0.307617 0.288121 0.093417 0.077609
C233  C     C_R   0.692383 0.711879 0.906583 0.077609
C234  C     C_R   0.192383 0.788121 0.906583 0.077610
C235  C     C_R   0.807617 0.211879 0.093417 0.077610
C236  C     C_R   0.807617 0.788121 0.093417 0.077609
H1    H     H_    0.030958 0.251103 0.528182 0.130770
H2    H     H_    0.218693 0.500000 0.557003 0.195793
H3    H     H_    0.104680 0.125751 0.193771 0.188692
H4    H     H_    0.281307 0.000000 0.442997 0.195793
H5    H     H_    0.718693 0.000000 0.557003 0.195793
H6    H     H_    0.617160 0.346260 0.775459 0.194641
H7    H     H_    0.382840 0.653740 0.224541 0.194641
H8    H     H_    0.382840 0.346260 0.224541 0.194641
H9    H     H_    0.617160 0.653740 0.775459 0.194641
H10   H     H_    0.117160 0.846260 0.775459 0.194641
H11   H     H_    0.882840 0.153740 0.224541 0.194641
H12   H     H_    0.882840 0.846260 0.224541 0.194641
H13   H     H_    0.969042 0.748896 0.471819 0.130770
H14   H     H_    0.117159 0.153740 0.775459 0.194641
H15   H     H_    0.570555 0.332764 0.086233 0.163687
H16   H     H_    0.429445 0.667236 0.913767 0.163687
H17   H     H_    0.429445 0.332764 0.913767 0.163687
H18   H     H_    0.570555 0.667236 0.086233 0.163687
H19   H     H_    0.070555 0.832764 0.086233 0.163687
H20   H     H_    0.929445 0.167236 0.913767 0.163687
H21   H     H_    0.929445 0.832764 0.913767 0.163687
H22   H     H_    0.070555 0.167236 0.086233 0.163687
H23   H     H_    0.799040 0.289584 0.693487 0.173644
H24   H     H_    0.969042 0.251103 0.471818 0.130771
H25   H     H_    0.200960 0.710416 0.306513 0.173644
H26   H     H_    0.200960 0.289584 0.306513 0.173644
H27   H     H_    0.799040 0.710416 0.693487 0.173644
H28   H     H_    0.299040 0.789584 0.693487 0.173644
H29   H     H_    0.700960 0.210416 0.306513 0.173644
H30   H     H_    0.700960 0.789584 0.306513 0.173644
H31   H     H_    0.299040 0.210416 0.693487 0.173644
H32   H     H_    0.847787 0.270748 0.770381 0.175937
H33   H     H_    0.152213 0.729252 0.229619 0.175937
H34   H     H_    0.152213 0.270748 0.229619 0.175937
H35   H     H_    0.030958 0.748896 0.528183 0.130770
H36   H     H_    0.847787 0.729252 0.770381 0.175937
H37   H     H_    0.347787 0.770748 0.770381 0.175938
H38   H     H_    0.652213 0.229252 0.229619 0.175937
H39   H     H_    0.652213 0.770748 0.229619 0.175937
H40   H     H_    0.347787 0.229252 0.770381 0.175937
H41   H     H_    0.089383 0.221112 0.572608 0.111071
H42   H     H_    0.057096 0.146693 0.709014 0.123988
H43   H     H_    0.017777 0.205080 0.859181 0.125128
H44   H     H_    0.006227 0.337975 0.873363 0.131356
H45   H     H_    0.033421 0.413276 0.738553 0.129327
H46   H     H_    0.530958 0.751104 0.528182 0.130770
H47   H     H_    0.966580 0.586725 0.261446 0.129327
H48   H     H_    0.993774 0.662026 0.126637 0.131356
H49   H     H_    0.982223 0.794922 0.140821 0.125129
H50   H     H_    0.942903 0.853307 0.290988 0.123988
H51   H     H_    0.910616 0.778888 0.427393 0.111072
H52   H     H_    0.910617 0.221112 0.427392 0.111071
H53   H     H_    0.942904 0.146693 0.290986 0.123988
H54   H     H_    0.982223 0.205079 0.140820 0.125129
H55   H     H_    0.993773 0.337975 0.126637 0.131356
H56   H     H_    0.966579 0.413276 0.261446 0.129328
H57   H     H_    0.469042 0.248896 0.471818 0.130770
H58   H     H_    0.033421 0.586724 0.738554 0.129327
H59   H     H_    0.006227 0.662025 0.873363 0.131357
H60   H     H_    0.017777 0.794920 0.859181 0.125129
H61   H     H_    0.057096 0.853307 0.709015 0.123988
H62   H     H_    0.089383 0.778888 0.572608 0.111071
H63   H     H_    0.589383 0.721112 0.572608 0.111071
H64   H     H_    0.557096 0.646693 0.709015 0.123988
H65   H     H_    0.517777 0.705080 0.859181 0.125128
H66   H     H_    0.506227 0.837976 0.873363 0.131356
H67   H     H_    0.533421 0.913276 0.738553 0.129328
H68   H     H_    0.469042 0.751104 0.471818 0.130770
H69   H     H_    0.466579 0.086724 0.261446 0.129327
H70   H     H_    0.493773 0.162025 0.126637 0.131356
H71   H     H_    0.482223 0.294920 0.140819 0.125128
H72   H     H_    0.442904 0.353307 0.290986 0.123988
H73   H     H_    0.410617 0.278888 0.427392 0.111071
H74   H     H_    0.410617 0.721112 0.427392 0.111071
H75   H     H_    0.442904 0.646693 0.290986 0.123988
H76   H     H_    0.482223 0.705079 0.140820 0.125129
H77   H     H_    0.493773 0.837975 0.126637 0.131356
H78   H     H_    0.466579 0.913276 0.261446 0.129327
H79   H     H_    0.530958 0.248896 0.528182 0.130770
H80   H     H_    0.533421 0.086724 0.738554 0.129327
H81   H     H_    0.506227 0.162025 0.873363 0.131356
H82   H     H_    0.517777 0.294921 0.859180 0.125128
H83   H     H_    0.557096 0.353307 0.709014 0.123988
H84   H     H_    0.589383 0.278888 0.572608 0.111071
H85   H     H_    0.604681 0.374249 0.193770 0.188692
H86   H     H_    0.575227 0.291367 0.221442 0.188653
H87   H     H_    0.424773 0.708633 0.778557 0.188653
H88   H     H_    0.395320 0.625751 0.806229 0.188692
H89   H     H_    0.395319 0.374249 0.806230 0.188692
H90   H     H_    0.781307 0.500000 0.442997 0.195793
H91   H     H_    0.424773 0.291367 0.778558 0.188653
H92   H     H_    0.575227 0.708633 0.221442 0.188653
H93   H     H_    0.604681 0.625751 0.193770 0.188692
H94   H     H_    0.104681 0.874249 0.193770 0.188692
H95   H     H_    0.075227 0.791367 0.221442 0.188653
H96   H     H_    0.924773 0.208633 0.778558 0.188653
H97   H     H_    0.895319 0.125751 0.806230 0.188692
H98   H     H_    0.895319 0.874249 0.806230 0.188692
H99   H     H_    0.924773 0.791367 0.778558 0.188653
H100  H     H_    0.075227 0.208633 0.221442 0.188653
N1    N     N_3   0.612605 0.318564 0.188577 -0.481984
N2    N     N_3   0.387395 0.681436 0.811423 -0.481984
N3    N     N_3   0.387395 0.318564 0.811423 -0.481984
N4    N     N_3   0.612605 0.681436 0.188577 -0.481984
N5    N     N_3   0.112605 0.818564 0.188576 -0.481984
N6    N     N_3   0.887395 0.181436 0.811423 -0.481985
N7    N     N_3   0.887395 0.818564 0.811423 -0.481984
N8    N     N_3   0.112604 0.181436 0.188577 -0.481985
O1    O     O_R   0.746490 0.236330 0.638080 -0.638948
O2    O     O_R   0.325830 0.813840 0.483730 -0.643064
O3    O     O_R   0.325830 0.186160 0.483730 -0.643064
O4    O     O_R   0.674170 0.813840 0.516270 -0.643064
O5    O     O_R   0.174170 0.686160 0.516270 -0.643064
O6    O     O_R   0.825830 0.313840 0.483730 -0.643064
O7    O     O_R   0.825830 0.686160 0.483730 -0.643064
O8    O     O_R   0.174170 0.313840 0.516270 -0.643064
O9    O     O_R   0.739960 0.127620 0.525000 -0.630340
O10   O     O_R   0.260040 0.872380 0.475000 -0.630339
O11   O     O_R   0.260040 0.127620 0.475000 -0.630340
O12   O     O_R   0.253510 0.763670 0.361920 -0.638948
O13   O     O_R   0.739960 0.872380 0.525000 -0.630340
O14   O     O_R   0.239960 0.627620 0.525000 -0.630340
O15   O     O_R   0.760040 0.372380 0.475000 -0.630340
O16   O     O_R   0.760040 0.627620 0.475000 -0.630340
O17   O     O_R   0.239960 0.372380 0.525000 -0.630340
O18   O     O_R   0.680700 0.294870 0.629350 -0.624419
O19   O     O_R   0.319300 0.705130 0.370650 -0.624419
O20   O     O_R   0.319300 0.294870 0.370650 -0.624419
O21   O     O_R   0.680700 0.705130 0.629350 -0.624419
O22   O     O_R   0.180700 0.794870 0.629350 -0.624419
O23   O     O_R   0.253510 0.236330 0.361920 -0.638948
O24   O     O_R   0.819300 0.205130 0.370650 -0.624419
O25   O     O_R   0.819300 0.794870 0.370650 -0.624419
O26   O     O_R   0.180700 0.205130 0.629350 -0.624419
O27   O     O_R   0.062020 0.072840 0.007170 -0.617100
O28   O     O_R   0.937980 0.927160 0.992830 -0.617100
O29   O     O_R   0.937980 0.072840 0.992830 -0.617100
O30   O     O_R   0.062020 0.927160 0.007170 -0.617100
O31   O     O_R   0.562020 0.572840 0.007170 -0.617100
O32   O     O_R   0.437980 0.427160 0.992830 -0.617100
O33   O     O_R   0.437980 0.572840 0.992830 -0.617100
O34   O     O_R   0.746490 0.763670 0.638080 -0.638948
O35   O     O_R   0.562020 0.427160 0.007170 -0.617100
O36   O     O_R   0.947860 0.073950 0.109290 -0.627240
O37   O     O_R   0.052140 0.926050 0.890710 -0.627240
O38   O     O_R   0.052140 0.073950 0.890710 -0.627240
O39   O     O_R   0.947860 0.926050 0.109290 -0.627240
O40   O     O_R   0.447860 0.573950 0.109290 -0.627240
O41   O     O_R   0.552140 0.426050 0.890710 -0.627240
O42   O     O_R   0.552140 0.573950 0.890710 -0.627240
O43   O     O_R   0.447860 0.426050 0.109290 -0.627240
O44   O     O_R   0.246490 0.736330 0.638080 -0.638948
O45   O     O_R   0.753510 0.263670 0.361920 -0.638948
O46   O     O_R   0.753510 0.736330 0.361920 -0.638948
O47   O     O_R   0.246490 0.263670 0.638080 -0.638948
O48   O     O_R   0.674170 0.186160 0.516270 -0.643064
Zn1   Zn    Zn3+2 0.792340 0.208750 0.507670 0.924541
Zn2   Zn    Zn3+2 0.494040 0.500000 0.919480 0.900567
Zn3   Zn    Zn3+2 0.005960 0.000000 0.080520 0.900567
Zn4   Zn    Zn3+2 0.994040 0.000000 0.919480 0.900567
Zn5   Zn    Zn3+2 0.207660 0.791250 0.492330 0.924541
Zn6   Zn    Zn3+2 0.207660 0.208750 0.492330 0.924541
Zn7   Zn    Zn3+2 0.792340 0.791250 0.507670 0.924540
Zn8   Zn    Zn3+2 0.292340 0.708750 0.507670 0.924541
Zn9   Zn    Zn3+2 0.707660 0.291250 0.492330 0.924541
Zn10  Zn    Zn3+2 0.707660 0.708750 0.492330 0.924541
Zn11  Zn    Zn3+2 0.292340 0.291250 0.507670 0.924541
Zn12  Zn    Zn3+2 0.505960 0.500000 0.080520 0.900567

loop_
_geom_bond_atom_site_label_1
_geom_bond_atom_site_label_2
_ccdc_geom_bond_type
C78   C226  A    
C20   C170  A    
C31   C161  A    
O7    Zn7   S    
C126  C127  A    
C6    C179  A    
C112  O19   A    
C10   C184  A    
O11   Zn6   S    
C4    C177  A    
C211  C220  A    
C50   C59   A    
O26   Zn6   S    
C52   C61   A    
C90   C134  S    
C195  C203  A    
C54   C63   A    
C156  C235  A    
C58   C60   A    
C143  C144  A    
O17   Zn11  S    
C3    C185  A    
C108  C109  A    
C160  O20   A    
C119  H55   S    
C61   C63   A    
C204  O46   A    
C110  C111  A    
C62   C64   A    
C91   C96   A    
H95   N5    S    
O41   Zn2   S    
C146  C176  A    
C70   C74   A    
C3    C158  A    
C227  O15   A    
C4    C12   A    
C24   C85   A    
H93   N4    S    
C88   C97   A    
O20   Zn11  S    
C206  C214  A    
C49   C69   A    
C96   H90   S    
C216  C233  A    
C197  C206  A    
C36   H38   S    
C104  C105  A    
C190  C199  A    
C38   C167  A    
C11   C20   A    
C228  O16   A    
C182  O22   A    
C86   C90   A    
C71   C73   A    
C222  O10   A    
O40   Zn12  S    
C179  C188  A    
C41   O29   A    
C224  O4    A    
C35   C55   A    
C177  C186  A    
C130  H64   S    
C51   C66   A    
O33   Zn2   S    
C52   C72   A    
C181  C190  A    
C155  C169  A    
C140  H73   S    
C40   C192  S    
C25   C33   A    
C164  C173  A    
C191  C200  A    
C44   O43   A    
C163  C172  A    
C16   C175  A    
C195  H6    S    
O10   Zn5   S    
O29   Zn4   S    
C148  C153  A    
O30   Zn3   S    
H96   N6    S    
C79   C85   A    
O5    Zn5   S    
C12   C174  A    
C21   C30   A    
C208  C217  A    
C66   C77   A    
C42   O37   A    
C57   C78   A    
C21   H23   S    
C8    C17   A    
C144  C145  A    
C68   C121  S    
C139  C140  A    
C189  C198  A    
C186  C195  A    
C100  C106  A    
C200  C209  A    
C56   C59   A    
C1    O18   A    
O12   Zn5   S    
C130  C131  A    
C80   C88   A    
C39   O38   A    
C127  H62   S    
C171  O34   A    
C207  C216  A    
C152  H83   S    
C182  C208  S    
C84   C93   A    
C48   C67   A    
C64   H1    S    
C86   C95   A    
C141  C147  A    
C160  C206  S    
C24   C77   A    
H3    N8    S    
C27   C218  A    
C43   O31   A    
C2    C81   A    
C15   N3    S    
C109  C110  A    
C40   O39   A    
C55   C71   A    
C2    C75   A    
O28   Zn4   S    
C78   C87   A    
C197  H8    S    
C91   C228  S    
O21   Zn10  S    
C67   C77   A    
C202  C211  A    
C123  H59   S    
C128  C129  A    
H99   N7    S    
C82   C226  A    
O38   Zn4   S    
C188  C197  A    
C113  C148  S    
C33   C163  A    
C218  C235  A    
C14   C173  A    
C34   C164  A    
C180  C189  A    
C124  C174  A    
C14   N2    S    
C198  H9    S    
C115  C116  A    
C69   C76   A    
C53   C62   A    
C1    O1    A    
C46   C82   A    
C193  C209  S    
C181  C234  A    
C43   O42   A    
C3    C220  A    
C32   C162  A    
C29   C38   A    
C107  C108  A    
C160  O23   A    
C199  H10   S    
C161  C169  A    
C87   C96   A    
C94   C224  S    
C135  C161  A    
C5    H16   S    
O39   Zn3   S    
C72   C75   A    
C20   N8    S    
C50   C90   A    
C30   C159  A    
O46   Zn10  S    
C34   H37   S    
C41   C191  S    
C196  H7    S    
C19   C172  A    
C177  C230  A    
C45   C187  S    
C139  H72   S    
C165  C174  A    
O8    Zn6   S    
C129  H63   S    
C151  H82   S    
C95   C223  S    
C210  C219  A    
C6    H17   S    
H89   N3    S    
C182  O44   A    
C225  O14   A    
C151  C152  A    
C10   H21   S    
O43   Zn12  S    
C224  O13   A    
H92   N4    S    
C17   N5    S    
O27   Zn3   S    
H97   N6    S    
C19   N7    S    
C7    H18   S    
C102  H41   S    
C171  C207  S    
C35   C100  S    
C222  O2    A    
C149  H80   S    
C129  C130  A    
C83   C101  A    
C117  H53   S    
C198  C207  A    
C147  H78   S    
C131  H65   S    
O48   Zn9   S    
C136  C137  A    
C153  H84   S    
C143  H75   S    
C144  H76   S    
C193  O24   A    
C21   C212  A    
C221  O48   A    
C204  O25   A    
C74   C226  A    
C117  C118  A    
O13   Zn7   S    
C28   C37   A    
C199  C208  A    
C111  H50   S    
C7    C180  A    
C102  C103  A    
C50   C65   A    
C51   C79   A    
C5    C178  A    
C221  O9    A    
C9    C18   A    
C152  C153  A    
H87   N2    S    
C22   C213  A    
C105  H44   S    
C150  C151  A    
C135  C231  A    
C51   C60   A    
C103  H42   S    
C45   O33   A    
C58   H68   S    
C183  C235  A    
O44   Zn8   S    
C187  C196  A    
C73   C74   A    
O36   Zn3   S    
C32   H34   S    
C16   N4    S    
C185  C194  A    
C214  C232  A    
O3    Zn11  S    
C57   C115  S    
C126  H61   S    
C150  H81   S    
C146  C162  A    
C166  C175  A    
C65   C76   A    
C15   C176  A    
C121  C127  A    
C49   C101  A    
C123  C125  A    
C98   H4    S    
C194  C202  A    
C200  H11   S    
C184  C236  A    
C171  O21   A    
O23   Zn6   S    
C29   C220  A    
C65   C67   A    
C158  C167  A    
C192  C201  A    
C184  C192  A    
C47   O41   A    
C122  H58   S    
C93   C99   A    
C81   C89   A    
C205  C213  A    
C132  H66   S    
C26   C217  A    
C133  H67   S    
C40   O28   A    
O34   Zn7   S    
C219  C236  A    
C104  H43   S    
O9    Zn1   S    
C145  C147  A    
H91   N3    S    
O16   Zn10  S    
C53   C57   A    
C215  O26   A    
C155  C234  A    
O31   Zn12  S    
O32   Zn2   S    
C183  C191  A    
C107  C114  A    
C9    C183  A    
C162  C170  A    
C10   C19   A    
C46   C54   A    
C8    C181  A    
C5    C14   A    
C108  H47   S    
C178  C187  A    
C229  O8    A    
C7    C16   A    
C63   H13   S    
C180  C233  A    
C28   C219  A    
O47   Zn11  S    
C33   H36   S    
C125  C126  A    
C29   H31   S    
C60   H46   S    
C12   N1    S    
O45   Zn9   S    
C120  H56   S    
C131  C132  A    
C1    C203  S    
C125  H60   S    
C193  O45   A    
C4    H15   S    
C217  C234  A    
C112  C205  S    
C223  O3    A    
C119  C120  A    
C157  C236  A    
C27   C36   A    
C105  C106  A    
C13   C83   A    
C8    H19   S    
C228  O7    A    
C23   C32   A    
C178  C231  A    
C149  C150  A    
C158  C170  A    
C135  C173  A    
C27   H29   S    
C110  H49   S    
C156  C165  A    
C154  C233  A    
C111  C114  A    
H94   N5    S    
C138  C139  A    
C82   C91   A    
O35   Zn12  S    
H100  N8    S    
C103  C104  A    
O6    Zn1   S    
C156  C168  A    
C142  C143  A    
C118  H54   S    
C179  C232  A    
C141  C142  A    
C61   H35   S    
O2    Zn8   S    
C48   C113  A    
C23   C214  A    
H98   N7    S    
C68   C80   A    
C211  C215  S    
C79   C128  S    
C84   C113  A    
C47   O35   A    
C35   C81   A    
C95   C98   A    
C92   C98   A    
C146  C232  A    
C116  C117  A    
C97   H2    S    
O18   Zn9   S    
C154  C175  A    
C209  C218  A    
C39   O27   A    
C157  C172  A    
C134  C140  A    
C25   H27   S    
C17   C169  A    
C114  H51   S    
C66   C69   A    
C26   H28   S    
C22   H25   S    
C124  C159  A    
C215  O47   A    
C28   H30   S    
C159  C168  A    
C196  C205  A    
C42   C190  S    
C118  C119  A    
C36   C165  A    
C6    C15   A    
C101  C141  S    
C136  H69   S    
C26   C34   A    
C145  H77   S    
C132  C133  A    
C54   C70   A    
C13   C86   A    
C31   H33   S    
C112  O12   A    
C52   C68   A    
C56   H79   S    
C41   O36   A    
C201  H12   S    
O14   Zn8   S    
O37   Zn4   S    
C39   C194  S    
C223  O11   A    
C22   C31   A    
O4    Zn10  S    
C11   H22   S    
C154  C163  A    
C148  C149  A    
C109  H48   S    
C18   C168  A    
C134  C136  A    
C23   H26   S    
C49   C58   A    
O25   Zn7   S    
C89   C97   A    
C47   C186  S    
C99   H5    S    
O22   Zn5   S    
C212  C230  A    
C85   C94   A    
H85   N1    S    
C88   C225  S    
C59   H57   S    
C13   C76   A    
C55   C64   A    
C100  C102  A    
C121  C122  A    
C18   N6    S    
C44   C188  S    
C138  H71   S    
C202  H14   S    
O1    Zn1   S    
C46   C107  S    
C229  O17   A    
C203  C212  A    
C9    H20   S    
C44   O32   A    
C45   O40   A    
C62   H24   S    
C201  C210  A    
O15   Zn9   S    
C48   C56   A    
C11   C185  A    
O24   Zn1   S    
C25   C216  A    
C53   C73   A    
C213  C231  A    
C157  C166  A    
C70   C72   A    
C37   C166  A    
C155  C164  A    
C137  C138  A    
C87   C227  S    
C106  H45   S    
H88   N2    S    
C92   C222  S    
C24   C84   A    
C227  O6    A    
C128  C133  A    
C37   H39   S    
H86   N1    S    
C71   C75   A    
C38   H40   S    
C94   C99   A    
C142  H74   S    
C225  O5    A    
C116  H52   S    
C2    C80   A    
C30   H32   S    
C43   C189  S    
C83   C92   A    
C115  C120  A    
C204  C210  S    
C122  C123  A    
C42   O30   A    
C93   C221  S    
C89   C229  S    
O19   Zn8   S    
C124  C230  A    
C137  H70   S    
C167  C176  A    
O42   Zn2   S    
