data_str_m2_o40_o41_f0_fof.sym.42
_audit_creation_date              2013-03-05T15:40:55-0500
_audit_creation_method            fapswitch 2.2
_symmetry_space_group_name_H-M    P1
_symmetry_Int_Tables_number       1
_space_group_crystal_system       triclinic
_cell_length_a                    27.988796
_cell_length_b                    18.731003
_cell_length_c                    16.814277
_cell_angle_alpha                 89.844149
_cell_angle_beta                  63.269873
_cell_angle_gamma                 89.670332
_cell_volume                      7872.87517767

loop_
_atom_site_label
_atom_site_type_symbol
_atom_site_description
_atom_site_fract_x
_atom_site_fract_y
_atom_site_fract_z
_atom_type_partial_charge
O1    O     O_R   0.255040 0.869590 0.478480 -0.577310
O2    O     O_R   0.744960 0.130410 0.521520 -0.589295
O3    O     O_R   0.744960 0.869590 0.521520 -0.584101
O4    O     O_R   0.255040 0.130410 0.478480 -0.577923
O5    O     O_R   0.755040 0.369590 0.478480 -0.578546
O6    O     O_R   0.244960 0.630410 0.521520 -0.579308
O7    O     O_R   0.244960 0.369590 0.521520 -0.584587
O8    O     O_R   0.755040 0.630410 0.478480 -0.583168
O9    O     O_R   0.182050 0.796550 0.624440 -0.512323
O10   O     O_R   0.817950 0.203450 0.375560 -0.510343
O11   O     O_R   0.817950 0.796550 0.375560 -0.509644
O12   O     O_R   0.182050 0.203450 0.624440 -0.506558
O13   O     O_R   0.682050 0.296550 0.624440 -0.505316
O14   O     O_R   0.317950 0.703450 0.375560 -0.513122
O15   O     O_R   0.317950 0.296550 0.375560 -0.511112
O16   O     O_R   0.682050 0.703450 0.624440 -0.509667
Cu1   Cu    Cu3+1 0.209920 0.785290 0.495070 1.021724
Cu2   Cu    Cu3+1 0.790080 0.214710 0.504930 1.007402
Cu3   Cu    Cu3+1 0.790080 0.785290 0.504930 1.019138
Cu4   Cu    Cu3+1 0.209920 0.214710 0.495070 1.020615
Cu5   Cu    Cu3+1 0.709920 0.285290 0.495070 1.017474
Cu6   Cu    Cu3+1 0.290080 0.714710 0.504930 1.017865
Cu7   Cu    Cu3+1 0.290080 0.285290 0.504930 1.016314
Cu8   Cu    Cu3+1 0.709920 0.714710 0.495070 1.020808
C1    C     C_R   0.293087 0.724077 0.330585 0.825538
C2    C     C_R   0.703543 0.267650 0.671410 0.831229
C3    C     C_R   0.703185 0.732825 0.671538 0.821004
C4    C     C_R   0.296081 0.268554 0.328462 0.825999
C5    C     C_R   0.793397 0.225106 0.330092 0.829343
C6    C     C_R   0.206893 0.775892 0.669422 0.825186
C7    C     C_R   0.203281 0.232603 0.671776 0.820042
C8    C     C_R   0.796781 0.767271 0.328463 0.821374
O17   O     O_R   0.250530 0.763330 0.367210 -0.608129
O18   O     O_R   0.749470 0.236670 0.632790 -0.624822
O19   O     O_R   0.749470 0.763330 0.632790 -0.603677
O20   O     O_R   0.250530 0.236670 0.367210 -0.608051
O21   O     O_R   0.750530 0.263330 0.367210 -0.616862
O22   O     O_R   0.249470 0.736670 0.632790 -0.609341
O23   O     O_R   0.249470 0.263330 0.632790 -0.606713
O24   O     O_R   0.750530 0.736670 0.367210 -0.603459
O25   O     O_R   0.177260 0.690030 0.513710 -0.593140
O26   O     O_R   0.822740 0.309970 0.486290 -0.586270
O27   O     O_R   0.822740 0.690030 0.486290 -0.586935
O28   O     O_R   0.177260 0.309970 0.513710 -0.589139
O29   O     O_R   0.677260 0.190030 0.513710 -0.591197
O30   O     O_R   0.322740 0.809970 0.486290 -0.593466
O31   O     O_R   0.322740 0.190030 0.486290 -0.587332
O32   O     O_R   0.677260 0.809970 0.513710 -0.586937
C9    C     C_R   0.200355 0.630873 0.514586 0.798075
C10   C     C_R   0.799237 0.369047 0.486499 0.815409
C11   C     C_R   0.803240 0.631694 0.472548 0.791089
C12   C     C_R   0.196614 0.368206 0.527862 0.786128
C13   C     C_R   0.700675 0.130938 0.513764 0.794647
C14   C     C_R   0.299616 0.869111 0.485501 0.800199
C15   C     C_R   0.303366 0.131774 0.472221 0.798600
C16   C     C_R   0.696741 0.868288 0.527533 0.790986
H1    H     H_    0.505089 0.775794 0.628347 0.166468
H2    H     H_    0.496352 0.224252 0.368255 0.169459
H3    H     H_    0.421194 0.776231 0.616259 0.133847
H4    H     H_    0.581145 0.222973 0.377769 0.135947
H5    H     H_    0.003503 0.275689 0.632287 0.166182
H6    H     H_    0.995003 0.723831 0.371400 0.166447
H7    H     H_    0.918634 0.277006 0.623047 0.142863
H8    H     H_    0.078915 0.723366 0.383421 0.134251
C17   C     C_R   0.066843 0.618679 0.444469 0.105476
C18   C     C_R   0.930988 0.381137 0.560621 0.100810
C19   C     C_R   0.970236 0.619323 0.430748 0.096478
C20   C     C_R   0.028526 0.379920 0.572217 0.095978
C21   C     C_R   0.568739 0.118813 0.440145 0.102288
C22   C     C_R   0.433139 0.881100 0.555643 0.105320
C23   C     C_R   0.471339 0.119992 0.428243 0.092429
C24   C     C_R   0.529727 0.880467 0.569421 0.096550
C25   C     C_R   0.053001 0.677294 0.406664 -0.197940
C26   C     C_R   0.944894 0.322679 0.598621 -0.188733
C27   C     C_R   0.005073 0.677628 0.399903 -0.174426
C28   C     C_R   0.993367 0.321909 0.603910 -0.179156
C29   C     C_R   0.554886 0.177287 0.402106 -0.188206
C30   C     C_R   0.447050 0.822384 0.593218 -0.197353
C31   C     C_R   0.506473 0.178031 0.396648 -0.167519
C32   C     C_R   0.494966 0.822063 0.600021 -0.173463
C33   C     C_R   0.984442 0.559620 0.466910 0.030498
C34   C     C_R   0.014089 0.439693 0.536564 0.031218
C35   C     C_R   0.032861 0.559387 0.473964 0.034392
C36   C     C_R   0.965433 0.440060 0.530039 0.033327
C37   C     C_R   0.485754 0.060210 0.463924 0.031113
C38   C     C_R   0.515459 0.940226 0.533431 0.031017
C39   C     C_R   0.534367 0.059850 0.470545 0.033994
C40   C     C_R   0.467050 0.940462 0.526349 0.034824
C41   C     C_R   0.452078 0.000392 0.491600 -0.041855
C42   C     C_R   0.549142 0.000002 0.505716 -0.042097
C43   C     C_R   0.950693 0.499891 0.494798 -0.043011
C44   C     C_R   0.047796 0.499497 0.508810 -0.043215
C45   C     C_R   0.371832 0.938106 0.506076 0.051376
C46   C     C_R   0.629529 0.061877 0.490884 0.050627
C47   C     C_R   0.614342 0.937528 0.541581 0.044059
C48   C     C_R   0.386356 0.062932 0.456958 0.044009
C49   C     C_R   0.870222 0.438084 0.509826 0.046998
C50   C     C_R   0.128081 0.561783 0.494219 0.050861
C51   C     C_R   0.113551 0.436987 0.543382 0.045590
C52   C     C_R   0.885557 0.562370 0.458782 0.044086
C53   C     C_R   0.326866 0.936204 0.487374 -0.105328
C54   C     C_R   0.673962 0.063828 0.510827 -0.101238
C55   C     C_R   0.666477 0.935656 0.536691 -0.109327
C56   C     C_R   0.333988 0.064582 0.462422 -0.110554
C57   C     C_R   0.825864 0.436152 0.489689 -0.108102
C58   C     C_R   0.173063 0.563744 0.512869 -0.105465
C59   C     C_R   0.165945 0.435368 0.537834 -0.109973
C60   C     C_R   0.833442 0.564294 0.463604 -0.109287
C61   C     C_R   0.307313 0.000183 0.470340 -0.249862
C62   C     C_R   0.693245 0.999946 0.528691 -0.258205
C63   C     C_R   0.806636 0.500031 0.471696 -0.255129
C64   C     C_R   0.192608 0.499781 0.529942 -0.256794
H9    H     H_    0.269855 0.000171 0.465973 0.197247
H10   H     H_    0.730468 0.999951 0.533826 0.194899
H11   H     H_    0.769445 0.500037 0.466458 0.195963
H12   H     H_    0.230074 0.499807 0.534283 0.195851
C65   C     C_R   0.403509 0.000400 0.484467 0.072276
C66   C     C_R   0.597570 0.999905 0.513122 0.071288
C67   C     C_R   0.902257 0.500010 0.487422 0.072530
C68   C     C_R   0.096377 0.499507 0.515916 0.071780
C69   C     C_R   0.578586 0.879579 0.573690 -0.211281
C70   C     C_R   0.422066 0.121095 0.425033 -0.207866
C71   C     C_R   0.385966 0.880737 0.546543 -0.224506
C72   C     C_R   0.616235 0.118833 0.448686 -0.219861
C73   C     C_R   0.077847 0.378802 0.575304 -0.216916
C74   C     C_R   0.921371 0.620242 0.426510 -0.212432
C75   C     C_R   0.883383 0.381157 0.552300 -0.221776
C76   C     C_R   0.114024 0.619040 0.453568 -0.225968
H13   H     H_    0.587333 0.834358 0.605174 0.189415
H14   H     H_    0.413013 0.166558 0.394301 0.190470
H15   H     H_    0.360194 0.835837 0.574680 0.154825
H16   H     H_    0.643162 0.162695 0.418833 0.152863
H17   H     H_    0.086943 0.333317 0.605951 0.183246
H18   H     H_    0.912666 0.665416 0.394906 0.189346
H19   H     H_    0.856230 0.337413 0.582582 0.169267
H20   H     H_    0.139949 0.663714 0.425183 0.154713
C77   C     C_R   0.221269 0.771075 0.952687 0.034782
C78   C     C_R   0.779630 0.227483 0.044684 0.042478
C79   C     C_R   0.777334 0.770545 0.049780 0.037276
C80   C     C_R   0.208376 0.255192 0.964313 0.041199
C81   C     C_R   0.723449 0.267163 0.948860 0.043192
C82   C     C_R   0.278512 0.728381 0.047408 0.034806
C83   C     C_R   0.267722 0.288432 0.058354 0.040296
C84   C     C_R   0.722462 0.730170 0.950363 0.037219
C85   C     C_R   0.276801 0.755150 0.905897 0.045706
C86   C     C_R   0.730550 0.263957 0.087096 0.043890
C87   C     C_R   0.745469 0.708077 0.073586 0.042051
C88   C     C_R   0.249108 0.307212 0.930043 0.042742
C89   C     C_R   0.767941 0.220916 0.910082 0.042640
C90   C     C_R   0.222981 0.744311 0.094207 0.045954
C91   C     C_R   0.227416 0.236007 0.091295 0.041104
C92   C     C_R   0.754347 0.792624 0.926516 0.042734
C93   C     C_R   0.305347 0.732235 0.953251 0.036333
C94   C     C_R   0.707744 0.293388 0.035309 0.041879
C95   C     C_R   0.718766 0.687097 0.022540 0.044995
C96   C     C_R   0.275978 0.327877 0.981147 0.041984
C97   C     C_R   0.800361 0.210136 0.953614 0.036244
C98   C     C_R   0.194412 0.767153 0.046842 0.036102
C99   C     C_R   0.194177 0.225587 0.049238 0.037539
C100  C     C_R   0.781035 0.813644 0.977611 0.043742
C101  C     C_R   0.138949 0.815600 0.949992 0.007454
C102  C     C_R   0.859725 0.179443 0.048748 0.004044
C103  C     C_R   0.841082 0.848797 0.071398 0.013521
C104  C     C_R   0.136195 0.187385 0.954066 0.009719
C105  C     C_R   0.655183 0.341666 0.935661 0.017171
C106  C     C_R   0.360886 0.684062 0.050067 0.004386
C107  C     C_R   0.338547 0.356032 0.072806 0.011925
C108  C     C_R   0.658705 0.651860 0.928826 0.017182
C109  C     C_R   0.113115 0.842853 0.900319 -0.216944
C110  C     C_R   0.886088 0.155671 0.099162 -0.210598
C111  C     C_R   0.876448 0.859409 0.110458 -0.229353
C112  C     C_R   0.112681 0.158141 0.901336 -0.223245
C113  C     C_R   0.622446 0.356518 0.892363 -0.228648
C114  C     C_R   0.386791 0.657005 0.099711 -0.212349
C115  C     C_R   0.375099 0.362104 0.110573 -0.230542
C116  C     C_R   0.623403 0.640995 0.889687 -0.227297
C117  C     C_R   0.133091 0.823178 0.810534 0.270108
C118  C     C_R   0.866313 0.176863 0.188653 0.267086
C119  C     C_R   0.866069 0.823374 0.190525 0.276450
C120  C     C_R   0.132190 0.179685 0.811559 0.263469
C121  C     C_R   0.634487 0.322910 0.810224 0.260269
C122  C     C_R   0.366850 0.676769 0.189456 0.268136
C123  C     C_R   0.364772 0.324156 0.189450 0.272872
C124  C     C_R   0.633817 0.676927 0.809551 0.276716
C125  C     C_R   0.185801 0.796375 0.764439 -0.237891
C126  C     C_R   0.814269 0.206156 0.234401 -0.238908
C127  C     C_R   0.821455 0.778498 0.230172 -0.222735
C128  C     C_R   0.177067 0.224932 0.771338 -0.232905
C129  C     C_R   0.679960 0.278874 0.769181 -0.221701
C130  C     C_R   0.314128 0.703525 0.235586 -0.239730
C131  C     C_R   0.318635 0.282208 0.230689 -0.221096
C132  C     C_R   0.678436 0.721821 0.769868 -0.223568
C133  C     C_R   0.217409 0.789484 0.810865 0.016133
C134  C     C_R   0.783428 0.217765 0.187033 0.017598
C135  C     C_R   0.797477 0.753036 0.177062 0.015710
C136  C     C_R   0.198617 0.256512 0.825742 0.018635
C137  C     C_R   0.706447 0.254597 0.819320 0.013680
C138  C     C_R   0.282466 0.710279 0.189216 0.015619
C139  C     C_R   0.290693 0.262986 0.181003 0.015140
C140  C     C_R   0.702375 0.747461 0.822985 0.016250
C141  C     C_R   0.192387 0.791519 0.904630 0.079446
C142  C     C_R   0.807871 0.208629 0.093558 0.072666
C143  C     C_R   0.805603 0.790404 0.099005 0.079402
C144  C     C_R   0.181160 0.232722 0.914292 0.076502
C145  C     C_R   0.694629 0.287467 0.901398 0.073515
C146  C     C_R   0.307435 0.708079 0.095453 0.078249
C147  C     C_R   0.299300 0.302160 0.103714 0.077200
C148  C     C_R   0.694191 0.710245 0.901146 0.078343
C149  C     C_R   0.112909 0.810907 0.043063 -0.131860
C150  C     C_R   0.883360 0.175299 0.954705 -0.133301
C151  C     C_R   0.839198 0.894946 0.006899 -0.141229
C152  C     C_R   0.115369 0.175695 0.046775 -0.126104
C153  C     C_R   0.650305 0.378373 0.012571 -0.146062
C154  C     C_R   0.386880 0.688638 0.956985 -0.136011
C155  C     C_R   0.339200 0.402224 0.005849 -0.142714
C156  C     C_R   0.660568 0.605877 0.993415 -0.142571
C157  C     C_R   0.139804 0.787226 0.090391 -0.194350
C158  C     C_R   0.853277 0.185995 0.908679 -0.218360
C159  C     C_R   0.810121 0.877853 0.961057 -0.191196
C160  C     C_R   0.145314 0.189935 0.091728 -0.208117
C161  C     C_R   0.672576 0.351249 0.065036 -0.209861
C162  C     C_R   0.359938 0.712122 0.909673 -0.198717
C163  C     C_R   0.310027 0.387304 0.959271 -0.194319
C164  C     C_R   0.689666 0.622924 0.039166 -0.191308
C165  C     C_R   0.273187 0.781733 0.766992 -0.154520
C166  C     C_R   0.728896 0.238670 0.228734 -0.155587
C167  C     C_R   0.766335 0.691073 0.198952 -0.142551
C168  C     C_R   0.235751 0.313075 0.796357 -0.148778
C169  C     C_R   0.744411 0.198245 0.790671 -0.145087
C170  C     C_R   0.226690 0.718097 0.233131 -0.155747
C171  C     C_R   0.254947 0.205234 0.205251 -0.136333
C172  C     C_R   0.733569 0.809402 0.800986 -0.142588
C173  C     C_R   0.302228 0.765087 0.812947 -0.198403
C174  C     C_R   0.704406 0.266426 0.179876 -0.215015
C175  C     C_R   0.741006 0.669075 0.148712 -0.193685
C176  C     C_R   0.260881 0.337069 0.846402 -0.198778
C177  C     C_R   0.776947 0.184950 0.831776 -0.225927
C178  C     C_R   0.197605 0.734576 0.187189 -0.197764
C179  C     C_R   0.223078 0.193106 0.162923 -0.204361
C180  C     C_R   0.758854 0.831522 0.851290 -0.194111
H21   H     H_    0.070663 0.822374 0.080540 0.186033
H22   H     H_    0.925568 0.165623 0.914681 0.190566
H23   H     H_    0.858230 0.946545 0.993164 0.167634
H24   H     H_    0.075230 0.157974 0.088067 0.200320
H25   H     H_    0.630926 0.429211 0.033770 0.162398
H26   H     H_    0.429137 0.677275 0.919455 0.189039
H27   H     H_    0.360857 0.451855 0.989568 0.170735
H28   H     H_    0.641511 0.554430 0.007275 0.149365
H29   H     H_    0.116432 0.786571 0.161634 0.142945
H30   H     H_    0.872838 0.179558 0.837057 0.146655
H31   H     H_    0.810891 0.917045 0.913565 0.135899
H32   H     H_    0.128078 0.176502 0.161728 0.152005
H33   H     H_    0.665106 0.379073 0.125952 0.143101
H34   H     H_    0.383268 0.712623 0.838418 0.143318
H35   H     H_    0.313595 0.424736 0.908046 0.139456
H36   H     H_    0.688869 0.583708 0.086649 0.132935
H37   H     H_    0.295725 0.791077 0.696857 0.149533
H38   H     H_    0.703170 0.233066 0.298664 0.161149
H39   H     H_    0.763024 0.656734 0.252947 0.163564
H40   H     H_    0.244628 0.342481 0.736227 0.172091
H41   H     H_    0.748900 0.162148 0.737867 0.174069
H42   H     H_    0.204183 0.708980 0.303310 0.149337
H43   H     H_    0.252525 0.166627 0.254710 0.169216
H44   H     H_    0.736962 0.843616 0.746840 0.162469
H45   H     H_    0.344851 0.761169 0.773135 0.131918
H46   H     H_    0.663560 0.285534 0.215232 0.144023
H47   H     H_    0.717401 0.621450 0.172000 0.138023
H48   H     H_    0.290460 0.378230 0.816623 0.142000
H49   H     H_    0.806822 0.143129 0.804944 0.141907
H50   H     H_    0.154995 0.738609 0.227051 0.131554
H51   H     H_    0.196721 0.147535 0.184643 0.145270
H52   H     H_    0.782491 0.879125 0.827970 0.136918
O33   O     O_R   0.051640 0.926880 0.885090 -0.501049
O34   O     O_R   0.948360 0.073120 0.114910 -0.513121
O35   O     O_R   0.948360 0.926880 0.114910 -0.522017
O36   O     O_R   0.051640 0.073120 0.885090 -0.510490
O37   O     O_R   0.551640 0.426880 0.885090 -0.510736
O38   O     O_R   0.448360 0.573120 0.114910 -0.507507
O39   O     O_R   0.448360 0.426880 0.114910 -0.513182
O40   O     O_R   0.551640 0.573120 0.885090 -0.522695
Cu9   Cu    Cu3+1 0.495240 0.500000 0.924150 1.068564
Cu10  Cu    Cu3+1 0.504760 0.500000 0.075850 1.074135
Cu11  Cu    Cu3+1 0.995240 0.000000 0.924150 1.075018
Cu12  Cu    Cu3+1 0.004760 0.000000 0.075850 1.064881
C181  C     C_R   0.923802 0.906876 0.068975 0.815659
C182  C     C_R   0.071770 0.099955 0.935345 0.815760
C183  C     C_R   0.070881 0.899079 0.936093 0.827207
C184  C     C_R   0.928746 0.100334 0.064108 0.799772
C185  C     C_R   0.423599 0.407363 0.068984 0.829424
C186  C     C_R   0.576133 0.593292 0.931085 0.804501
C187  C     C_R   0.575593 0.405547 0.931954 0.817402
C188  C     C_R   0.429090 0.600885 0.063926 0.808525
O41   O     O_R   0.940620 0.926560 0.986760 -0.595559
O42   O     O_R   0.059380 0.073440 0.013240 -0.611874
O43   O     O_R   0.059380 0.926560 0.013240 -0.605609
O44   O     O_R   0.940620 0.073440 0.986760 -0.624929
O45   O     O_R   0.440620 0.426560 0.986760 -0.596528
O46   O     O_R   0.559380 0.573440 0.013240 -0.601040
O47   O     O_R   0.559380 0.426560 0.013240 -0.612237
O48   O     O_R   0.440620 0.573440 0.986760 -0.620913
N1    N     N_R   0.098836 0.828589 0.767752 0.152231
O49   O     O_R   0.103226 0.882597 0.715967 -0.305605
O50   O     O_R   0.057596 0.786843 0.792871 -0.348370
N2    N     N_R   0.900419 0.170853 0.231657 0.151393
O51   O     O_R   0.895868 0.116537 0.283106 -0.315499
O52   O     O_R   0.941391 0.212943 0.207761 -0.366312
N3    N     N_R   0.901540 0.830041 0.230784 0.146538
O53   O     O_R   0.930456 0.775517 0.231105 -0.393209
O54   O     O_R   0.898102 0.885420 0.279811 -0.316260
N4    N     N_R   0.105282 0.156531 0.760962 0.152017
O55   O     O_R   0.067453 0.195749 0.758500 -0.386286
O56   O     O_R   0.119154 0.096947 0.716282 -0.313748
N5    N     N_R   0.599483 0.331104 0.769180 0.153410
O57   O     O_R   0.603529 0.386771 0.719955 -0.313474
O58   O     O_R   0.569442 0.278080 0.770053 -0.343522
N6    N     N_R   0.401170 0.671553 0.232134 0.153980
O59   O     O_R   0.396895 0.617612 0.283949 -0.315726
O60   O     O_R   0.442363 0.713399 0.206876 -0.344566
N7    N     N_R   0.402144 0.325342 0.226424 0.146537
O61   O     O_R   0.429322 0.267947 0.223311 -0.378044
O62   O     O_R   0.401794 0.378351 0.276668 -0.316566
N8    N     N_R   0.598400 0.670089 0.769213 0.147194
O63   O     O_R   0.569466 0.724539 0.768732 -0.391952
O64   O     O_R   0.601918 0.614634 0.720250 -0.315950

loop_
_geom_bond_atom_site_label_1
_geom_bond_atom_site_label_2
_geom_bond_distance
_ccdc_geom_bond_type
N8    O64   1.302679 A    
C86   C174  1.394413 A    
C155  H27   1.078165 S    
C138  C146  1.408729 A    
Cu2   Cu5   2.666123 S    
C59   C64   1.396663 A    
C23   C70   1.404240 A    
C136  C168  1.412334 A    
N1    O49   1.302706 A    
C103  C143  1.411709 A    
C157  H29   1.076165 S    
C77   C98   1.416423 A    
C110  C118  1.406991 A    
C96   C163  1.406135 A    
C1    C130  1.483572 S    
C80   C99   1.411462 A    
C38   C40   1.412461 A    
C81   C94   1.405008 A    
C100  C159  1.411496 A    
C135  C143  1.411573 A    
Cu6   O22   1.970862 S    
C133  C141  1.408651 A    
C5    C126  1.487027 S    
C6    O22   1.292797 A    
C118  N2    1.437374 S    
C178  H50   1.075841 S    
C139  C171  1.407303 A    
C104  C144  1.415745 A    
C33   C35   1.412505 A    
O39   C185  1.302355 A    
C89   C177  1.398330 A    
C108  C148  1.411724 A    
O3    Cu3   1.956651 S    
C36   C43   1.410054 A    
C136  C144  1.413723 A    
C87   C95   1.425450 A    
C49   C57   1.426904 A    
C83   C91   1.411171 A    
C140  C148  1.411239 A    
C158  H30   1.082355 S    
C51   C59   1.427060 A    
O25   C9    1.283005 A    
C29   C31   1.398702 A    
N4    O56   1.303046 A    
C106  C114  1.420295 A    
C122  C130  1.412171 A    
C150  H22   1.079049 S    
C38   C42   1.404891 A    
C45   C53   1.428524 A    
C102  C150  1.415308 A    
Cu12  O43   1.968132 S    
C3    O19   1.294759 A    
N6    O59   1.302692 A    
C123  N7    1.437514 S    
C156  C164  1.387398 A    
C112  C182  1.499290 S    
C86   C94   1.401013 A    
C13   C54   1.478498 S    
O12   Cu4   1.964106 S    
O13   Cu5   1.964413 S    
H2    C31   1.083652 S    
C34   C36   1.414550 A    
C160  H32   1.081825 S    
O33   C183  1.306299 A    
H6    C27   1.083741 S    
O34   C184  1.306562 A    
C169  C177  1.389817 A    
O35   C181  1.300577 A    
C91   C179  1.405459 A    
C164  H36   1.076335 S    
C115  C123  1.414268 A    
C129  C137  1.422456 A    
C116  C124  1.413341 A    
C45   C71   1.416857 A    
C16   C55   1.484900 S    
C106  C146  1.410654 A    
O2    C13   1.303324 A    
C50   C68   1.414069 A    
C9    C58   1.482033 S    
H7    C26   1.083752 S    
C156  H28   1.077183 S    
C50   C58   1.428454 A    
C60   C63   1.395712 A    
C135  C167  1.401051 A    
C185  O45   1.293999 A    
C149  C157  1.389177 A    
C93   C162  1.414604 A    
Cu3   O19   1.971151 S    
C78   C142  1.415725 A    
C134  C166  1.416471 A    
O10   Cu2   1.964413 S    
C97   C158  1.398710 A    
C183  O43   1.295123 A    
C82   C146  1.426748 A    
C133  C165  1.401593 A    
C118  C126  1.414108 A    
O5    Cu5   1.967128 S    
C40   C41   1.410095 A    
C46   C54   1.426926 A    
C99   C160  1.398457 A    
C140  C172  1.401420 A    
C88   C176  1.407189 A    
C105  C145  1.414057 A    
C91   C99   1.413622 A    
C134  C142  1.414375 A    
N7    O62   1.302576 A    
C14   C53   1.481498 S    
C21   C29   1.404798 A    
C107  C155  1.411672 A    
O27   C11   1.291094 A    
C114  C122  1.403074 A    
C23   C31   1.403658 A    
O15   C4    1.311018 A    
C117  C125  1.412178 A    
C26   C28   1.398966 A    
C102  C142  1.407960 A    
C55   C62   1.395839 A    
C124  N8    1.437308 S    
C104  C152  1.414173 A    
O7    C12   1.309049 A    
Cu2   O26   1.968655 S    
C30   C32   1.396302 A    
N5    O58   1.300783 A    
C18   C26   1.404872 A    
C72   H16   1.076792 S    
C82   C93   1.416379 A    
C10   C57   1.478275 S    
H8    C25   1.083469 S    
C154  C162  1.388857 A    
C62   H10   1.083418 S    
C101  C109  1.420441 A    
O28   C12   1.290011 A    
O16   C3    1.306657 A    
C184  O44   1.291698 A    
O29   C13   1.283286 A    
H1    C32   1.083769 S    
C111  C119  1.413466 A    
C45   C65   1.413993 A    
H3    C30   1.083658 S    
C109  C117  1.403178 A    
Cu4   O28   1.960650 S    
C2    C129  1.485449 S    
C47   C55   1.424338 A    
Cu10  O47   1.968132 S    
Cu5   O29   1.968655 S    
H5    C28   1.083660 S    
C175  H47   1.076009 S    
C161  H33   1.083256 S    
C52   C60   1.424262 A    
Cu7   O31   1.960650 S    
Cu8   O32   1.960650 S    
C6    C125  1.483383 S    
C48   C65   1.416586 A    
O40   Cu9   1.971397 S    
C149  H21   1.081151 S    
C132  C140  1.421847 A    
C15   C56   1.485735 S    
O4    Cu4   1.956653 S    
C49   C67   1.413156 A    
Cu4   Cu7   2.679340 S    
Cu12  O42   1.976406 S    
C52   C67   1.416994 A    
C153  H25   1.072394 S    
C74   H18   1.081383 S    
C153  C161  1.383283 A    
O9    C6    1.293702 A    
O26   C10   1.283277 A    
C105  C153  1.417252 A    
C41   C65   1.417377 A    
O11   C8    1.306551 A    
C19   C33   1.409634 A    
O12   C7    1.310084 A    
C43   C67   1.415771 A    
O13   C2    1.303830 A    
C104  C112  1.432139 A    
C19   C27   1.402379 A    
C3    C132  1.491775 S    
C4    C131  1.494183 S    
C64   H12   1.083402 S    
C107  C115  1.431422 A    
C108  C116  1.427829 A    
C121  N5    1.437205 S    
C172  H44   1.080905 S    
C8    C127  1.491846 S    
C126  C134  1.429030 A    
C168  H40   1.076982 S    
O37   C187  1.304027 A    
C137  C169  1.415840 A    
C20   C28   1.403743 A    
C151  C159  1.388360 A    
O1    Cu1   1.967128 S    
C166  C174  1.383899 A    
C20   C34   1.408991 A    
C108  C156  1.403335 A    
C44   C68   1.417481 A    
C84   C92   1.418893 A    
C46   C66   1.412832 A    
C47   C69   1.412252 A    
C77   C141  1.426686 A    
Cu11  O41   1.976406 S    
O7    Cu7   1.956651 S    
O8    Cu8   1.956653 S    
C81   C145  1.416370 A    
C173  H45   1.075901 S    
Cu11  Cu12  2.681157 S    
C159  H31   1.076370 S    
C20   C73   1.404574 A    
C1    O17   1.292723 A    
C170  H42   1.072306 S    
C85   C173  1.408230 A    
C24   C69   1.401288 A    
C25   C27   1.396256 A    
C137  C145  1.408794 A    
C186  O46   1.297257 A    
C166  H38   1.072671 S    
O36   C182  1.310721 A    
O11   Cu3   1.964106 S    
C42   C66   1.415823 A    
C77   C85   1.421119 A    
C75   H19   1.079358 S    
C76   H20   1.071351 S    
C119  C127  1.403704 A    
C53   C61   1.396160 A    
O6    Cu6   1.967126 S    
C34   C44   1.405656 A    
N6    O60   1.300818 A    
C171  H43   1.079677 S    
C120  C128  1.413627 A    
C121  C129  1.406203 A    
C83   C147  1.427965 A    
C12   C59   1.485526 S    
C124  C132  1.404062 A    
C103  C111  1.427753 A    
C21   C39   1.404777 A    
C112  C120  1.413313 A    
C50   C76   1.416091 A    
N8    O63   1.300925 A    
C57   C63   1.396381 A    
C113  C121  1.414525 A    
C122  N6    1.437306 S    
Cu1   O17   1.970860 S    
C119  N3    1.437335 S    
Cu3   O27   1.960650 S    
N1    O50   1.300821 A    
N3    O53   1.300930 A    
C115  C185  1.485406 S    
C17   C76   1.396096 A    
C151  H23   1.079466 S    
C139  C147  1.414396 A    
C19   C74   1.401175 A    
Cu9   O45   1.976406 S    
C37   C41   1.405389 A    
C21   C72   1.399834 A    
C101  C149  1.400659 A    
O40   C186  1.300888 A    
C155  C163  1.391845 A    
C102  C110  1.420599 A    
O30   C14   1.282812 A    
Cu6   O30   1.968655 S    
C120  N4    1.435687 S    
C79   C100  1.420391 A    
C169  H41   1.078515 S    
O4    C15   1.309029 A    
C52   C74   1.412189 A    
O5    C10   1.303236 A    
C54   C62   1.396339 A    
O38   C188  1.306344 A    
C130  C138  1.424425 A    
O37   Cu9   1.961234 S    
N4    O55   1.301030 A    
C90   C98   1.422599 A    
C71   H15   1.072045 S    
C109  C183  1.489238 S    
C110  C184  1.484366 S    
C69   H13   1.081376 S    
C111  C181  1.487347 S    
C24   C38   1.409675 A    
C152  C160  1.385074 A    
Cu1   Cu6   2.666123 S    
C48   C70   1.414480 A    
C165  C173  1.384085 A    
C82   C90   1.421140 A    
C94   C161  1.393355 A    
C80   C144  1.430653 A    
Cu3   Cu8   2.679340 S    
C79   C143  1.429559 A    
O10   C5    1.299621 A    
O14   Cu6   1.964413 S    
N5    O57   1.302863 A    
C98   C157  1.414801 A    
O14   C1    1.293877 A    
C17   C35   1.403167 A    
N7    O61   1.300854 A    
Cu4   O20   1.971149 S    
Cu5   O21   1.970860 S    
C4    O20   1.290732 A    
C24   C32   1.402448 A    
C39   C42   1.410121 A    
C5    O21   1.288624 A    
C176  H48   1.078364 S    
C177  H49   1.082304 S    
C88   C96   1.428369 A    
C89   C97   1.412248 A    
C84   C148  1.429816 A    
C87   C175  1.413871 A    
C92   C100  1.426032 A    
C22   C30   1.404604 A    
C49   C75   1.418005 A    
C22   C40   1.403015 A    
C80   C88   1.414186 A    
C81   C89   1.409426 A    
C51   C73   1.414684 A    
C58   C64   1.396046 A    
C35   C44   1.409898 A    
C79   C87   1.418836 A    
C101  C141  1.410715 A    
C131  C139  1.425428 A    
C56   C61   1.396527 A    
C174  H46   1.083289 S    
C105  C113  1.429340 A    
C17   C25   1.404437 A    
C18   C75   1.400913 A    
C171  C179  1.388538 A    
O39   Cu10  1.971396 S    
C51   C68   1.416344 A    
C23   C37   1.409074 A    
C22   C71   1.395888 A    
C2    O18   1.285822 A    
C11   C60   1.485055 S    
C90   C178  1.408196 A    
C7    C128  1.502154 S    
C187  O47   1.292987 A    
C167  H39   1.080895 S    
C85   C93   1.422343 A    
O15   Cu7   1.964106 S    
C113  C187  1.486733 S    
O16   Cu8   1.964106 S    
C114  C188  1.488952 S    
C95   C164  1.411033 A    
C37   C39   1.414155 A    
C47   C66   1.416753 A    
H4    C29   1.083809 S    
O33   Cu11  1.961234 S    
O34   Cu12  1.961231 S    
C103  C151  1.404282 A    
Cu9   Cu10  2.681157 S    
N3    O54   1.302678 A    
C107  C147  1.411149 A    
O1    C14   1.304983 A    
O3    C16   1.307599 A    
C92   C180  1.413921 A    
Cu11  O44   1.968129 S    
C117  N1    1.437309 S    
C162  H34   1.076178 S    
C154  H26   1.081091 S    
C33   C43   1.405233 A    
O35   Cu12  1.971396 S    
Cu2   O18   1.970862 S    
O8    C11   1.307605 A    
C106  C154  1.400680 A    
O9    Cu1   1.964413 S    
N2    O51   1.302792 A    
C170  C178  1.384270 A    
C116  C186  1.488327 S    
Cu10  O46   1.976406 S    
O31   C15   1.290075 A    
C73   H17   1.081365 S    
O32   C16   1.291048 A    
Cu9   O48   1.968129 S    
C127  C135  1.421427 A    
C125  C133  1.424108 A    
O2    Cu2   1.967126 S    
C123  C131  1.403177 A    
C138  C170  1.401665 A    
O36   Cu11  1.971397 S    
C61   H9    1.083427 S    
C167  C175  1.389236 A    
C150  C158  1.389736 A    
C179  H51   1.081395 S    
C78   C86   1.404628 A    
C180  H52   1.076101 S    
C84   C95   1.420282 A    
C48   C56   1.426914 A    
C165  H37   1.072469 S    
C152  H24   1.075040 S    
C78   C97   1.410089 A    
C83   C96   1.418255 A    
Cu7   O23   1.971151 S    
N2    O52   1.300845 A    
Cu8   O24   1.971149 S    
C182  O42   1.293143 A    
C7    O23   1.294769 A    
C8    O24   1.294843 A    
O6    C9    1.305022 A    
Cu1   O25   1.968655 S    
C168  C176  1.393880 A    
C188  O48   1.294965 A    
C18   C36   1.405413 A    
C163  H35   1.078681 S    
C128  C136  1.433127 A    
O38   Cu10  1.961231 S    
C181  O41   1.297060 A    
C172  C180  1.389863 A    
C63   H11   1.083414 S    
C70   H14   1.081344 S    
C46   C72   1.417332 A    
