data_str_m3_o40_o41_f0_fof.sym.120
_audit_creation_date              2013-03-05T15:41:00-0500
_audit_creation_method            fapswitch 2.2
_symmetry_space_group_name_H-M    P1
_symmetry_Int_Tables_number       1
_space_group_crystal_system       triclinic
_cell_length_a                    28.12593
_cell_length_b                    18.376232
_cell_length_c                    16.937801
_cell_angle_alpha                 90.0
_cell_angle_beta                  61.212022
_cell_angle_gamma                 90.14888
_cell_volume                      7672.28417469

loop_
_atom_site_label
_atom_site_type_symbol
_atom_site_description
_atom_site_fract_x
_atom_site_fract_y
_atom_site_fract_z
_atom_type_partial_charge
O1    O     O_R   0.746490 0.236330 0.638080 -0.643410
O2    O     O_R   0.253510 0.763670 0.361920 -0.644573
O3    O     O_R   0.253510 0.236330 0.361920 -0.635856
O4    O     O_R   0.746490 0.763670 0.638080 -0.611291
O5    O     O_R   0.246490 0.736330 0.638080 -0.651127
O6    O     O_R   0.753510 0.263670 0.361920 -0.630422
O7    O     O_R   0.753510 0.736330 0.361920 -0.640712
O8    O     O_R   0.246490 0.263670 0.638080 -0.636058
O9    O     O_R   0.674170 0.186160 0.516270 -0.639339
O10   O     O_R   0.325830 0.813840 0.483730 -0.634331
O11   O     O_R   0.325830 0.186160 0.483730 -0.624804
O12   O     O_R   0.674170 0.813840 0.516270 -0.612496
O13   O     O_R   0.174170 0.686160 0.516270 -0.605549
O14   O     O_R   0.825830 0.313840 0.483730 -0.627535
O15   O     O_R   0.825830 0.686160 0.483730 -0.624825
O16   O     O_R   0.174170 0.313840 0.516270 -0.597782
O17   O     O_R   0.739960 0.127620 0.525000 -0.620900
O18   O     O_R   0.260040 0.872380 0.475000 -0.638675
O19   O     O_R   0.260040 0.127620 0.475000 -0.642211
O20   O     O_R   0.739960 0.872380 0.525000 -0.632324
O21   O     O_R   0.239960 0.627620 0.525000 -0.634157
O22   O     O_R   0.760040 0.372380 0.475000 -0.641687
O23   O     O_R   0.760040 0.627620 0.475000 -0.638773
O24   O     O_R   0.239960 0.372380 0.525000 -0.626751
O25   O     O_R   0.680700 0.294870 0.629350 -0.621968
O26   O     O_R   0.319300 0.705130 0.370650 -0.608773
O27   O     O_R   0.319300 0.294870 0.370650 -0.626167
O28   O     O_R   0.680700 0.705130 0.629350 -0.603298
O29   O     O_R   0.180700 0.794870 0.629350 -0.613625
O30   O     O_R   0.819300 0.205130 0.370650 -0.594399
O31   O     O_R   0.819300 0.794870 0.370650 -0.616660
O32   O     O_R   0.180700 0.205130 0.629350 -0.616089
C1    C     C_R   0.706552 0.277881 0.672762 0.912933
C2    C     C_R   0.298989 0.733803 0.322975 0.920147
C3    C     C_R   0.300008 0.264147 0.322704 0.940032
C4    C     C_R   0.700300 0.735322 0.677252 0.900798
C5    C     C_R   0.201066 0.766281 0.677019 0.909693
C6    C     C_R   0.799601 0.235089 0.322887 0.918149
C7    C     C_R   0.798804 0.766501 0.322917 0.911832
C8    C     C_R   0.206683 0.221907 0.672746 0.913303
C9    C     C_R   0.695735 0.127521 0.520317 0.939736
C10   C     C_R   0.308468 0.870867 0.465491 0.919135
C11   C     C_R   0.309508 0.129797 0.462044 0.871049
C12   C     C_R   0.690681 0.870357 0.536592 0.894887
C13   C     C_R   0.191035 0.629309 0.536109 0.912420
C14   C     C_R   0.809214 0.370260 0.462050 0.891222
C15   C     C_R   0.802440 0.627415 0.484690 0.916946
C16   C     C_R   0.198537 0.372329 0.511629 0.930296
Zn1   Zn    Zn3+2 0.792340 0.208750 0.507670 1.004146
Zn2   Zn    Zn3+2 0.207660 0.791250 0.492330 0.993739
Zn3   Zn    Zn3+2 0.207660 0.208750 0.492330 0.996161
Zn4   Zn    Zn3+2 0.792340 0.791250 0.507670 0.991826
Zn5   Zn    Zn3+2 0.292340 0.708750 0.507670 0.979588
Zn6   Zn    Zn3+2 0.707660 0.291250 0.492330 0.965080
Zn7   Zn    Zn3+2 0.707660 0.708750 0.492330 1.006471
Zn8   Zn    Zn3+2 0.292340 0.291250 0.507670 0.995892
H1    H     H_    0.107425 0.311642 0.301098 0.163242
H2    H     H_    0.895743 0.695892 0.681156 0.194052
H3    H     H_    0.026619 0.306422 0.292711 0.172999
H4    H     H_    0.975811 0.699524 0.691286 0.177440
H5    H     H_    0.509135 0.756177 0.569964 0.192355
H6    H     H_    0.511822 0.236479 0.359156 0.184560
H7    H     H_    0.448340 0.753931 0.508661 0.176034
H8    H     H_    0.590030 0.231018 0.378076 0.184463
C17   C     C_R   0.577506 0.119781 0.428066 0.035013
C18   C     C_R   0.457683 0.868041 0.471670 0.033685
C19   C     C_R   0.482103 0.127042 0.409292 0.030554
C20   C     C_R   0.532331 0.870681 0.539826 0.026737
C21   C     C_R   0.016828 0.611341 0.596737 0.039726
C22   C     C_R   0.984681 0.391269 0.391829 0.031971
C23   C     C_R   0.919042 0.605863 0.585219 0.033738
C24   C     C_R   0.081272 0.396023 0.405262 0.040305
C25   C     C_R   0.564999 0.182768 0.394669 -0.166488
C26   C     C_R   0.468664 0.804659 0.506140 -0.149199
C27   C     C_R   0.518271 0.186473 0.385792 -0.200082
C28   C     C_R   0.503567 0.806599 0.543159 -0.200393
C29   C     C_R   0.973823 0.659384 0.646407 -0.182054
C30   C     C_R   0.028143 0.345122 0.339472 -0.178716
C31   C     C_R   0.926117 0.656545 0.641145 -0.192725
C32   C     C_R   0.075540 0.348089 0.345052 -0.165873
C33   C     C_R   0.495179 0.063179 0.441500 0.040359
C34   C     C_R   0.521815 0.934136 0.503224 0.041514
C35   C     C_R   0.540912 0.060925 0.455644 0.031912
C36   C     C_R   0.481223 0.933970 0.476794 0.029391
C37   C     C_R   0.960839 0.554974 0.537481 0.036620
C38   C     C_R   0.040572 0.447844 0.451332 0.032673
C39   C     C_R   0.009228 0.557062 0.544304 0.034595
C40   C     C_R   0.992402 0.445715 0.444287 0.034833
C41   C     C_R   0.952827 0.499264 0.487343 -0.047189
C42   C     C_R   0.048726 0.502860 0.501999 -0.048117
C43   C     C_R   0.465750 0.999236 0.451438 -0.051954
C44   C     C_R   0.552233 0.997596 0.491261 -0.047997
C45   C     C_R   0.894130 0.438677 0.437042 -0.007052
C46   C     C_R   0.106939 0.561619 0.554710 -0.004263
C47   C     C_R   0.132608 0.443878 0.478226 -0.018374
C48   C     C_R   0.868146 0.555002 0.514309 -0.005990
C49   C     C_R   0.395619 0.933470 0.435897 0.010257
C50   C     C_R   0.629978 0.058071 0.488188 0.001431
C51   C     C_R   0.607221 0.934490 0.547168 0.012922
C52   C     C_R   0.399502 0.066227 0.424501 0.001825
C53   C     C_R   0.841933 0.436263 0.442842 -0.068550
C54   C     C_R   0.158776 0.563260 0.550868 -0.084687
C55   C     C_R   0.172548 0.439052 0.507619 -0.111457
C56   C     C_R   0.828399 0.560213 0.485524 -0.081122
C57   C     C_R   0.343538 0.934926 0.440992 -0.063386
C58   C     C_R   0.668389 0.061015 0.520141 -0.066581
C59   C     C_R   0.656502 0.934806 0.553507 -0.069963
C60   C     C_R   0.345301 0.065680 0.435798 -0.081580
C61   C     C_R   0.814694 0.500017 0.452555 -0.260777
C62   C     C_R   0.186294 0.499665 0.539796 -0.265822
C63   C     C_R   0.320274 0.000268 0.438408 -0.290193
C64   C     C_R   0.680896 0.999658 0.552751 -0.273394
H9    H     H_    0.779802 0.501033 0.441441 0.187884
H10   H     H_    0.221012 0.498769 0.551388 0.192482
H11   H     H_    0.279747 0.000312 0.445959 0.189541
H12   H     H_    0.713833 0.000781 0.568910 0.182681
C65   C     C_R   0.905470 0.497804 0.479037 0.042580
C66   C     C_R   0.096005 0.502942 0.511399 0.054324
C67   C     C_R   0.420208 0.999886 0.437417 0.039666
C68   C     C_R   0.595660 0.997082 0.510639 0.040991
C69   C     C_R   0.126952 0.393367 0.419113 -0.076334
C70   C     C_R   0.870886 0.602776 0.577736 -0.072494
C71   C     C_R   0.934923 0.386461 0.389655 -0.065366
C72   C     C_R   0.066012 0.614494 0.601289 -0.065973
C73   C     C_R   0.571159 0.873689 0.571250 -0.068487
C74   C     C_R   0.434522 0.128522 0.398925 -0.069997
C75   C     C_R   0.423878 0.868154 0.431607 -0.098741
C76   C     C_R   0.626771 0.111893 0.430695 -0.097096
C77   C     C_R   0.732647 0.291157 0.943989 0.022402
C78   C     C_R   0.282863 0.740343 0.042151 0.021747
C79   C     C_R   0.295894 0.235621 0.032008 0.028248
C80   C     C_R   0.714761 0.744588 0.959272 0.022305
C81   C     C_R   0.218319 0.761603 0.956924 0.022581
C82   C     C_R   0.793319 0.260431 0.033902 0.019237
C83   C     C_R   0.779736 0.764775 0.044075 0.023508
C84   C     C_R   0.234675 0.205573 0.942686 0.022534
C85   C     C_R   0.786969 0.266545 0.894339 0.048482
C86   C     C_R   0.234304 0.780753 0.085924 0.050375
C87   C     C_R   0.246107 0.197809 0.077232 0.060028
C88   C     C_R   0.763385 0.785173 0.915466 0.041457
C89   C     C_R   0.266968 0.721362 0.913054 0.050673
C90   C     C_R   0.742938 0.296585 0.079506 0.047862
C91   C     C_R   0.730776 0.724861 0.088182 0.051293
C92   C     C_R   0.288832 0.231110 0.892903 0.048506
C93   C     C_R   0.815813 0.245496 0.940804 0.052117
C94   C     C_R   0.200715 0.788430 0.045011 0.050648
C95   C     C_R   0.212889 0.190102 0.035571 0.045695
C96   C     C_R   0.797277 0.792106 0.956062 0.051501
C97   C     C_R   0.300558 0.713694 0.953972 0.049246
C98   C     C_R   0.710152 0.304729 0.037290 0.048962
C99   C     C_R   0.697074 0.717542 0.047383 0.048967
C100  C     C_R   0.317948 0.251746 0.939194 0.046910
C101  C     C_R   0.646678 0.327397 0.948979 0.077079
C102  C     C_R   0.362074 0.685465 0.043964 0.070578
C103  C     C_R   0.369673 0.302661 0.039199 0.064776
C104  C     C_R   0.635950 0.688543 0.957035 0.068175
C105  C     C_R   0.138701 0.815643 0.955581 0.070922
C106  C     C_R   0.868034 0.195533 0.040317 0.073844
C107  C     C_R   0.860277 0.817064 0.044591 0.072356
C108  C     C_R   0.148097 0.170397 0.948635 0.075835
C109  C     C_R   0.617900 0.346412 0.901209 -0.132872
C110  C     C_R   0.386952 0.660145 0.095433 -0.132635
C111  C     C_R   0.390191 0.335449 0.093644 -0.142651
C112  C     C_R   0.611624 0.662187 0.905253 -0.138892
C113  C     C_R   0.113428 0.840293 0.904412 -0.137730
C114  C     C_R   0.889294 0.163694 0.094208 -0.141513
C115  C     C_R   0.886235 0.840511 0.095346 -0.134802
C116  C     C_R   0.118601 0.152951 0.901339 -0.134394
C117  C     C_R   0.637931 0.326644 0.812844 -0.294112
C118  C     C_R   0.367691 0.682297 0.183340 -0.309900
C119  C     C_R   0.369242 0.316026 0.183052 -0.254839
C120  C     C_R   0.630621 0.684876 0.817436 -0.312143
C121  C     C_R   0.132490 0.817801 0.816699 -0.286801
C122  C     C_R   0.868696 0.183632 0.183293 -0.312007
C123  C     C_R   0.867482 0.817398 0.182749 -0.297379
C124  C     C_R   0.138264 0.173585 0.813355 -0.300992
H13   H     H_    0.613784 0.336003 0.779565 0.189441
H14   H     H_    0.386322 0.661400 0.221814 0.195196
H15   H     H_    0.384847 0.341978 0.223425 0.180651
H16   H     H_    0.612303 0.663294 0.778738 0.206368
H17   H     H_    0.113637 0.838336 0.778438 0.182003
H18   H     H_    0.885072 0.158956 0.223218 0.213926
H19   H     H_    0.887134 0.836655 0.220436 0.191832
H20   H     H_    0.113673 0.165118 0.780637 0.190279
C125  C     C_R   0.689659 0.299685 0.764964 -0.111995
C126  C     C_R   0.322633 0.726252 0.224875 -0.113914
C127  C     C_R   0.325927 0.268676 0.223628 -0.062723
C128  C     C_R   0.675530 0.729545 0.775950 -0.139484
C129  C     C_R   0.177687 0.774137 0.775030 -0.099188
C130  C     C_R   0.824847 0.229913 0.224188 -0.150499
C131  C     C_R   0.821673 0.774720 0.224954 -0.121898
C132  C     C_R   0.190137 0.200093 0.764961 -0.119191
C133  C     C_R   0.723888 0.293776 0.805972 0.066622
C134  C     C_R   0.296493 0.752208 0.175144 0.073967
C135  C     C_R   0.303673 0.236141 0.171170 0.105031
C136  C     C_R   0.701090 0.756547 0.826266 0.074960
C137  C     C_R   0.204244 0.748857 0.824432 0.068925
C138  C     C_R   0.801243 0.260501 0.172820 0.081820
C139  C     C_R   0.794287 0.750652 0.176133 0.073995
C140  C     C_R   0.224822 0.205501 0.805411 0.063855
C141  C     C_R   0.700950 0.303462 0.899828 0.077589
C142  C     C_R   0.313820 0.726035 0.087123 0.076989
C143  C     C_R   0.323255 0.257951 0.080674 0.086574
C144  C     C_R   0.683847 0.730119 0.914232 0.062049
C145  C     C_R   0.187106 0.775391 0.912245 0.072898
C146  C     C_R   0.821001 0.238943 0.082278 0.069915
C147  C     C_R   0.811396 0.777556 0.088349 0.075866
C148  C     C_R   0.202418 0.194440 0.899091 0.077098
C149  C     C_R   0.623539 0.332112 0.043469 -0.174041
C150  C     C_R   0.383704 0.672794 0.950692 -0.171125
C151  C     C_R   0.393767 0.312154 0.944967 -0.182115
C152  C     C_R   0.614112 0.675744 0.050309 -0.166766
C153  C     C_R   0.117310 0.828643 0.048746 -0.174504
C154  C     C_R   0.892045 0.186443 0.946102 -0.183660
C155  C     C_R   0.881428 0.830552 0.951459 -0.173716
C156  C     C_R   0.125696 0.163946 0.042997 -0.171798
C157  C     C_R   0.654808 0.322868 0.086301 -0.207835
C158  C     C_R   0.353072 0.684437 0.907471 -0.210801
C159  C     C_R   0.368344 0.288073 0.896415 -0.208537
C160  C     C_R   0.644535 0.687913 0.093800 -0.205915
C161  C     C_R   0.148184 0.817572 0.091631 -0.215917
C162  C     C_R   0.866448 0.210163 0.897782 -0.208663
C163  C     C_R   0.850076 0.820695 0.909084 -0.219325
C164  C     C_R   0.157653 0.171337 0.084979 -0.222227
C165  C     C_R   0.780278 0.280770 0.756815 -0.171041
C166  C     C_R   0.254323 0.804119 0.208541 -0.169164
C167  C     C_R   0.263045 0.181947 0.204413 -0.209551
C168  C     C_R   0.742971 0.809126 0.793135 -0.087961
C169  C     C_R   0.246650 0.697272 0.790922 -0.167993
C170  C     C_R   0.758872 0.312255 0.207414 -0.100440
C171  C     C_R   0.751196 0.699750 0.210025 -0.172111
C172  C     C_R   0.281175 0.219312 0.755884 -0.180954
C173  C     C_R   0.810600 0.265239 0.799855 -0.215135
C174  C     C_R   0.222919 0.816235 0.166667 -0.218694
C175  C     C_R   0.232477 0.166750 0.161356 -0.236918
C176  C     C_R   0.774614 0.821148 0.834880 -0.189418
C177  C     C_R   0.278330 0.685747 0.832412 -0.221051
C178  C     C_R   0.728305 0.326293 0.164462 -0.177766
C179  C     C_R   0.719256 0.688974 0.168807 -0.215709
C180  C     C_R   0.311894 0.234151 0.798541 -0.213298
H21   H     H_    0.580627 0.340838 0.086315 0.168000
H22   H     H_    0.425021 0.655742 0.908271 0.174840
H23   H     H_    0.433265 0.336599 0.906065 0.168902
H24   H     H_    0.572834 0.657954 0.092319 0.176454
H25   H     H_    0.075956 0.845375 0.091463 0.171459
H26   H     H_    0.931727 0.162896 0.906953 0.170077
H27   H     H_    0.922955 0.846719 0.908341 0.172483
H28   H     H_    0.082830 0.155345 0.086632 0.172400
H29   H     H_    0.634275 0.327047 0.158939 0.147520
H30   H     H_    0.372216 0.672461 0.836313 0.144283
H31   H     H_    0.388434 0.300974 0.825531 0.141052
H32   H     H_    0.625299 0.675733 0.164944 0.151756
H33   H     H_    0.129151 0.829738 0.162728 0.143491
H34   H     H_    0.886656 0.197838 0.826782 0.141996
H35   H     H_    0.868932 0.833190 0.838032 0.143722
H36   H     H_    0.137710 0.165618 0.157464 0.145342
H37   H     H_    0.802751 0.284451 0.684354 0.182706
H38   H     H_    0.245575 0.838461 0.265485 0.177075
H39   H     H_    0.253184 0.151441 0.264818 0.170997
H40   H     H_    0.751962 0.842573 0.735259 0.164866
H41   H     H_    0.255358 0.662607 0.734269 0.179024
H42   H     H_    0.748224 0.343305 0.267562 0.165345
H43   H     H_    0.742178 0.664792 0.266605 0.176003
H44   H     H_    0.303369 0.216963 0.683351 0.183533
H45   H     H_    0.853253 0.255004 0.757050 0.145073
H46   H     H_    0.190966 0.856068 0.197146 0.142160
H47   H     H_    0.199258 0.128514 0.193415 0.146591
H48   H     H_    0.806858 0.860814 0.804177 0.137258
H49   H     H_    0.310415 0.646107 0.801837 0.143288
H50   H     H_    0.694546 0.363385 0.197002 0.131762
H51   H     H_    0.686827 0.649585 0.199600 0.142203
H52   H     H_    0.354429 0.245303 0.755449 0.144610
O33   O     O_R   0.062020 0.072840 0.007170 -0.625340
O34   O     O_R   0.937980 0.927160 0.992830 -0.627617
O35   O     O_R   0.937980 0.072840 0.992830 -0.625463
O36   O     O_R   0.062020 0.927160 0.007170 -0.628656
O37   O     O_R   0.562020 0.572840 0.007170 -0.626821
O38   O     O_R   0.437980 0.427160 0.992830 -0.623959
O39   O     O_R   0.437980 0.572840 0.992830 -0.627295
O40   O     O_R   0.562020 0.427160 0.007170 -0.625199
O41   O     O_R   0.947860 0.073950 0.109290 -0.610538
O42   O     O_R   0.052140 0.926050 0.890710 -0.619579
O43   O     O_R   0.052140 0.073950 0.890710 -0.617253
O44   O     O_R   0.947860 0.926050 0.109290 -0.617146
O45   O     O_R   0.447860 0.573950 0.109290 -0.615230
O46   O     O_R   0.552140 0.426050 0.890710 -0.617135
O47   O     O_R   0.552140 0.573950 0.890710 -0.613997
O48   O     O_R   0.447860 0.426050 0.109290 -0.618978
C181  C     C_R   0.073046 0.102112 0.935929 0.905714
C182  C     C_R   0.927450 0.897602 0.063891 0.919644
C183  C     C_R   0.928293 0.103418 0.063344 0.916613
C184  C     C_R   0.072565 0.897678 0.935979 0.913737
C185  C     C_R   0.571972 0.602999 0.936390 0.918769
C186  C     C_R   0.428661 0.396301 0.063027 0.915901
C187  C     C_R   0.427575 0.602459 0.063923 0.916461
C188  C     C_R   0.572817 0.397733 0.935984 0.907794
Zn9   Zn    Zn3+2 0.505960 0.500000 0.080520 0.945704
Zn10  Zn    Zn3+2 0.494040 0.500000 0.919480 0.944571
Zn11  Zn    Zn3+2 0.005960 1.000000 0.080520 0.946011
Zn12  Zn    Zn3+2 0.994040 0.000000 0.919480 0.936787
C189  C     C_2   0.167990 0.338305 0.367987 0.929859
O49   O     O_2   0.213457 0.356388 0.310546 -0.650895
O50   O     O_R   0.151867 0.265265 0.382395 -0.793044
H53   H     H_    0.176703 0.232376 0.332074 0.339362
C190  C     C_2   0.819415 0.633001 0.649793 0.909243
O51   O     O_2   0.816729 0.696133 0.673564 -0.638298
O52   O     O_R   0.773823 0.587738 0.690967 -0.812464
H54   H     H_    0.741902 0.611969 0.743154 0.341031
C191  C     C_2   0.928088 0.333680 0.329177 0.898375
O53   O     O_2   0.934197 0.268503 0.335785 -0.632746
O54   O     O_R   0.913619 0.358980 0.265842 -0.821364
H55   H     H_    0.910836 0.318378 0.227801 0.336968
C192  C     C_2   0.071744 0.666901 0.663266 0.903780
O55   O     O_2   0.082601 0.644680 0.720773 -0.646998
O56   O     O_R   0.065762 0.741523 0.654528 -0.805389
H56   H     H_    0.069556 0.771310 0.701540 0.336091
C193  C     C_2   0.568690 0.821534 0.640765 0.924708
O57   O     O_2   0.567207 0.755840 0.630901 -0.648255
O58   O     O_R   0.570885 0.848523 0.716150 -0.816034
H57   H     H_    0.570350 0.808451 0.757733 0.337730
C194  C     C_2   0.427291 0.188063 0.346076 0.927043
O59   O     O_2   0.420704 0.173038 0.281650 -0.647950
O60   O     O_R   0.426455 0.260748 0.371197 -0.814937
H58   H     H_    0.423212 0.295948 0.327990 0.336459
C195  C     C_2   0.430995 0.811202 0.363425 0.969564
O61   O     O_2   0.452919 0.753203 0.360734 -0.661692
O62   O     O_R   0.414532 0.825830 0.299142 -0.812483
H59   H     H_    0.422747 0.784357 0.255023 0.337001
C196  C     C_2   0.678676 0.137297 0.352723 0.946993
O63   O     O_2   0.680393 0.191660 0.310036 -0.647304
O64   O     O_R   0.725338 0.094849 0.324242 -0.815621
H60   H     H_    0.756619 0.112441 0.265464 0.341701

loop_
_geom_bond_atom_site_label_1
_geom_bond_atom_site_label_2
_geom_bond_distance
_ccdc_geom_bond_type
O4    C4    1.251238 A    
C155  H27   1.078182 S    
O5    C5    1.249896 A    
C138  C146  1.413505 A    
C59   C64   1.370567 A    
C23   C70   1.420812 A    
O7    Zn7   2.012966 S    
O31   Zn4   2.066492 S    
O8    Zn8   2.012966 S    
C136  C168  1.411890 A    
C152  H24   1.078616 S    
C189  O49   1.221399 D    
C106  C114  1.435483 A    
O39   Zn10  1.986336 S    
C157  H29   1.081199 S    
C118  H14   1.084743 S    
C105  C113  1.434114 A    
C38   C40   1.416591 A    
C135  C143  1.413929 A    
C129  C137  1.441413 A    
C133  C141  1.409923 A    
O30   C6    1.303011 A    
C178  H50   1.081325 S    
C139  C171  1.413278 A    
C154  C162  1.395457 A    
C33   C35   1.417995 A    
C6    C130  1.471412 S    
C70   C190  1.481967 S    
C36   C43   1.412433 A    
O48   C186  1.269026 A    
C136  C144  1.412018 A    
C78   C142  1.430890 A    
C49   C57   1.425590 A    
O2    C2    1.250409 A    
C91   C99   1.422812 A    
O44   C182  1.271883 A    
C50   C68   1.404710 A    
C140  C148  1.411547 A    
C158  H30   1.080091 S    
O33   C181  1.216660 A    
O6    Zn6   2.014653 S    
C112  C185  1.460174 S    
C101  C141  1.412855 A    
C29   C31   1.387755 A    
C114  C122  1.380508 A    
O60   H58   1.013357 S    
C91   C179  1.406239 A    
C105  C145  1.407883 A    
O41   Zn11  1.999765 S    
C150  H22   1.078230 S    
C38   C42   1.414050 A    
C45   C53   1.423937 A    
C94   C161  1.404875 A    
C152  C160  1.389592 A    
O27   C3    1.302114 A    
C101  C109  1.436698 A    
C4    C128  1.472820 S    
C156  C164  1.395321 A    
C7    C131  1.470136 S    
O50   H53   1.004210 S    
C8    C132  1.454592 S    
O45   C187  1.270538 A    
O46   C188  1.275977 A    
C107  C147  1.407116 A    
H2    C31   1.075862 S    
O41   C183  1.271133 A    
O42   C184  1.271053 A    
O30   Zn1   2.066619 S    
C34   C36   1.412827 A    
C76   C196  1.494279 S    
C160  H32   1.079962 S    
C87   C175  1.405616 A    
H6    C27   1.077274 S    
O24   Zn8   2.018458 S    
C149  H21   1.080025 S    
C78   C86   1.412957 A    
C102  C110  1.433627 A    
O36   Zn11  1.986338 S    
C164  H36   1.081400 S    
C123  H19   1.084909 S    
C85   C93   1.429579 A    
C124  H20   1.085479 S    
C48   C56   1.422044 A    
C15   C56   1.439763 S    
C45   C71   1.414264 A    
O23   Zn7   2.018458 S    
H7    C26   1.082267 S    
C156  H28   1.079637 S    
O44   Zn11  1.993987 S    
O9    C9    1.255866 A    
C50   C58   1.423329 A    
C60   C63   1.381259 A    
C135  C167  1.410324 A    
C149  C157  1.394271 A    
C133  C165  1.412786 A    
C102  C150  1.412526 A    
O13   C13   1.259137 A    
C90   C98   1.421194 A    
O38   Zn10  1.980808 S    
O39   C187  1.222008 A    
C107  C115  1.435490 A    
C11   C60   1.474600 S    
C132  C140  1.440205 A    
C72   C192  1.489166 S    
C13   C54   1.461034 S    
C77   C85   1.418538 A    
C40   C41   1.401056 A    
C46   C54   1.428011 A    
O12   C12   1.250683 A    
C194  O59   1.223041 D    
O7    C7    1.245998 A    
O9    Zn6   2.098505 S    
O8    C8    1.244852 A    
C95   C164  1.406344 A    
C134  C142  1.411740 A    
O47   Zn10  1.993986 S    
C21   C29   1.405605 A    
O16   Zn3   2.103005 S    
C109  C117  1.370556 A    
C122  H18   1.084501 S    
C23   C31   1.408858 A    
O22   Zn6   2.012795 S    
C115  C182  1.458464 S    
C26   C28   1.396692 A    
C55   C62   1.373992 A    
C52   C74   1.432294 A    
O18   C10   1.292638 A    
C30   C32   1.382054 A    
C192  O56   1.398483 S    
C18   C26   1.403001 A    
C92   C180  1.407007 A    
C2    C126  1.469233 S    
C195  O62   1.399428 S    
O2    Zn2   2.014653 S    
C190  O52   1.398461 S    
H8    C25   1.080251 S    
O6    C6    1.253605 A    
C62   H10   1.084912 S    
C77   C141  1.431322 A    
C83   C91   1.412893 A    
C196  O64   1.399695 S    
H1    C32   1.080346 S    
C119  H15   1.084280 S    
C45   C65   1.415961 A    
C103  C143  1.408584 A    
H3    C30   1.080464 S    
C117  H13   1.085293 S    
O20   C12   1.303316 A    
C176  H48   1.080067 S    
C47   C55   1.434163 A    
O21   C13   1.296451 A    
C191  O54   1.397852 S    
H5    C28   1.076308 S    
C175  H47   1.081417 S    
C14   C53   1.459341 S    
C161  H33   1.080033 S    
C52   C60   1.442109 A    
C107  C155  1.413894 A    
O24   C16   1.289474 A    
C48   C65   1.401938 A    
O17   Zn1   2.012795 S    
C103  C111  1.434298 A    
C16   C55   1.447330 S    
O47   C185  1.268408 A    
C49   C67   1.407576 A    
C108  C148  1.412552 A    
O3    C3    1.254073 A    
C52   C67   1.414075 A    
C153  H25   1.078057 S    
O34   C182  1.219538 A    
C113  C184  1.460565 S    
C114  C183  1.468794 S    
C41   C65   1.405324 A    
C19   C33   1.416197 A    
C43   C67   1.410792 A    
C112  C120  1.380285 A    
C109  C188  1.459831 S    
C19   C27   1.410738 A    
C110  C187  1.460461 S    
C64   H12   1.085167 S    
C111  C119  1.381097 A    
C115  C123  1.377317 A    
C12   C59   1.466098 S    
C116  C124  1.369512 A    
C171  H43   1.077247 S    
C172  H44   1.078141 S    
C126  C134  1.440793 A    
C1    C125  1.453115 S    
C168  H40   1.078485 S    
C169  H41   1.077514 S    
C20   C28   1.412603 A    
C151  C159  1.395750 A    
C166  C174  1.391834 A    
C20   C34   1.417726 A    
O23   C15   1.279705 A    
C44   C68   1.409209 A    
C24   C32   1.414045 A    
C46   C66   1.418080 A    
C47   C69   1.428985 A    
C86   C94   1.422624 A    
O40   C188  1.219273 A    
C98   C157  1.407607 A    
O12   Zn7   2.103005 S    
C79   C87   1.411471 A    
O11   Zn8   2.103005 S    
C173  H45   1.078736 S    
O13   Zn2   2.098505 S    
C116  C181  1.458936 S    
C20   C73   1.427744 A    
O25   C1    1.297283 A    
C170  H42   1.077104 S    
C24   C69   1.413780 A    
O10   C10   1.256999 A    
C25   C27   1.394778 A    
C137  C145  1.411754 A    
C166  H38   1.077630 S    
O14   C14   1.263313 A    
C108  C116  1.439294 A    
C42   C66   1.413341 A    
C83   C147  1.432658 A    
C96   C163  1.404390 A    
C82   C146  1.431601 A    
C104  C152  1.411786 A    
C53   C61   1.367423 A    
C108  C156  1.412530 A    
C100  C159  1.409134 A    
C34   C44   1.400274 A    
C193  O58   1.398527 S    
O10   Zn5   2.098505 S    
C73   C193  1.493532 S    
C153  C161  1.389776 A    
O48   Zn9   1.993987 S    
C79   C143  1.431566 A    
C21   C39   1.418105 A    
C120  H16   1.084668 S    
C50   C76   1.421165 A    
C57   C63   1.379675 A    
C121  H17   1.084248 S    
O56   H56   1.013225 S    
C159  H31   1.078352 S    
O40   Zn9   1.986338 S    
O16   C16   1.255148 A    
C79   C100  1.415558 A    
C102  C142  1.407789 A    
O19   C11   1.300469 A    
C189  O50   1.398895 S    
C80   C144  1.430514 A    
C9    C58   1.443085 S    
O1    C1    1.248516 A    
O52   H54   1.011620 S    
C106  C146  1.411145 A    
C17   C76   1.415399 A    
C151  H23   1.078181 S    
O25   Zn6   2.066619 S    
C19   C74   1.431440 A    
C84   C148  1.433329 A    
O3    Zn3   2.012966 S    
O27   Zn8   2.066492 S    
C93   C162  1.409286 A    
C21   C72   1.423110 A    
C17   C35   1.406575 A    
O64   H60   1.012235 S    
O33   Zn11  1.980808 S    
O32   Zn3   2.066492 S    
O34   Zn12  1.980808 S    
C82   C90   1.413039 A    
C110  C118  1.378549 A    
C118  C126  1.378394 A    
C71   C191  1.488536 S    
O15   Zn4   2.103005 S    
C122  C130  1.380871 A    
O22   C14   1.292517 A    
C137  C169  1.413217 A    
C54   C62   1.365586 A    
C106  C154  1.411787 A    
O35   Zn12  1.986336 S    
C130  C138  1.439414 A    
C90   C178  1.403141 A    
C82   C93   1.414979 A    
C37   C41   1.415308 A    
O45   Zn9   1.999765 S    
C24   C38   1.404091 A    
C119  C127  1.379024 A    
C80   C88   1.412242 A    
C51   C59   1.440854 A    
C81   C89   1.413209 A    
C48   C70   1.417805 A    
C165  C173  1.392917 A    
C134  C166  1.412936 A    
O62   H59   1.013521 S    
C84   C92   1.417974 A    
O35   C183  1.226310 A    
C101  C149  1.410533 A    
C192  O55   1.223059 D    
C97   C158  1.405207 A    
C195  O61   1.222552 D    
C10   C57   1.459651 S    
C174  H46   1.080070 S    
C117  C125  1.373754 A    
O58   H57   1.014034 S    
C33   C43   1.398186 A    
O28   C4    1.303546 A    
C3    C127  1.475090 S    
C190  O51   1.218552 D    
C39   C42   1.406685 A    
O29   C5    1.305003 A    
C88   C176  1.408402 A    
C80   C99   1.416132 A    
C99   C160  1.405369 A    
C177  H49   1.080052 S    
C81   C94   1.415636 A    
C113  C121  1.378205 A    
C92   C100  1.430383 A    
O38   C186  1.225987 A    
C5    C129  1.469097 S    
O54   H55   1.013033 S    
C22   C30   1.400410 A    
C196  O63   1.220320 D    
O15   C15   1.258728 A    
C49   C75   1.423715 A    
C22   C40   1.422104 A    
C88   C96   1.424219 A    
C89   C97   1.422716 A    
C51   C73   1.427986 A    
C58   C64   1.374514 A    
C191  O53   1.223174 D    
O43   C181  1.277636 A    
C35   C44   1.416542 A    
C74   C194  1.488732 S    
C87   C95   1.423085 A    
O4    Zn4   2.012966 S    
O18   Zn2   2.012795 S    
C75   C195  1.499160 S    
O5    Zn5   2.014653 S    
C131  C139  1.443765 A    
C123  C131  1.376121 A    
C56   C61   1.374444 A    
C124  C132  1.371975 A    
O14   Zn1   2.098505 S    
O42   Zn12  1.999766 S    
C81   C145  1.431313 A    
C17   C25   1.406125 A    
C18   C75   1.409238 A    
C171  C179  1.391672 A    
C51   C68   1.416762 A    
C23   C37   1.414392 A    
O43   Zn12  1.993986 S    
O26   C2    1.304573 A    
C194  O60   1.398609 S    
O11   C11   1.256321 A    
C167  H39   1.078818 S    
C22   C71   1.420091 A    
O28   Zn7   2.066492 S    
O29   Zn2   2.066619 S    
C37   C39   1.420673 A    
C47   C66   1.415007 A    
H4    C29   1.079712 S    
C69   C189  1.466063 S    
C163  H35   1.080268 S    
C78   C97   1.415458 A    
C139  C147  1.412946 A    
C162  H34   1.078374 S    
O37   C185  1.224228 A    
C154  H26   1.078086 S    
C128  C136  1.441385 A    
O37   Zn9   1.980808 S    
C111  C186  1.464032 S    
C170  C178  1.392310 A    
C85   C173  1.406806 A    
C104  C144  1.406443 A    
O26   Zn5   2.066619 S    
C89   C177  1.405992 A    
C127  C135  1.439583 A    
C125  C133  1.437230 A    
C155  C163  1.390775 A    
C138  C170  1.414706 A    
C61   H9    1.084859 S    
C167  C175  1.397004 A    
C105  C153  1.412617 A    
C150  C158  1.390101 A    
C179  H51   1.079934 S    
C180  H52   1.078744 S    
C103  C151  1.412374 A    
C165  H37   1.078444 S    
C77   C98   1.413409 A    
O20   Zn4   2.018458 S    
O21   Zn5   2.012795 S    
O1    Zn1   2.014653 S    
C120  C128  1.379426 A    
C121  C129  1.378074 A    
O31   C7    1.305770 A    
O32   C8    1.298283 A    
C193  O57   1.222076 D    
O17   C9    1.283937 A    
C168  C176  1.394936 A    
C84   C95   1.414947 A    
C86   C174  1.406179 A    
C18   C36   1.401738 A    
O36   C184  1.221412 A    
O19   Zn3   2.018458 S    
C140  C172  1.413368 A    
C104  C112  1.431154 A    
C83   C96   1.417148 A    
C172  C180  1.393864 A    
O46   Zn10  1.999766 S    
C63   H11   1.084084 S    
C169  C177  1.391627 A    
C46   C72   1.422209 A    
