data_str_m3_o40_o41_f0_fof.sym.85
_audit_creation_date              2012-12-10T16:38:12-0500
_audit_creation_method            fapswitch 2.2
_symmetry_space_group_name_H-M    P1
_symmetry_Int_Tables_number       1
_space_group_crystal_system       triclinic
_cell_length_a                    28.230707
_cell_length_b                    18.594013
_cell_length_c                    16.720568
_cell_angle_alpha                 90.040798
_cell_angle_beta                  60.349141
_cell_angle_gamma                 89.759935
_cell_volume                      7627.59630273

loop_
_atom_site_label
_atom_site_type_symbol
_atom_type_description
_atom_site_fract_x
_atom_site_fract_y
_atom_site_fract_z
_atom_type_partial_charge
C1    C     C_R   0.698857 0.261389 0.677798 0.912545
C2    C     C_R   0.300960 0.738168 0.322056 0.891222
C3    C     C_R   0.299647 0.264754 0.322072 0.887626
C4    C     C_R   0.698982 0.737536 0.678170 0.894652
C5    C     C_R   0.198857 0.761387 0.677798 0.912542
C6    C     C_R   0.800961 0.238171 0.322056 0.891229
C7    C     C_R   0.799649 0.764747 0.322071 0.887646
C8    C     C_R   0.198982 0.237535 0.678170 0.894634
C9    C     C_R   0.905734 0.494848 0.484146 -0.020847
C10   C     C_R   0.102672 0.500194 0.488168 -0.012974
C11   C     C_R   0.405735 0.994850 0.484146 -0.020845
C12   C     C_R   0.602672 0.000194 0.488168 -0.012971
C13   C     C_R   0.118659 0.375902 0.443374 0.205611
C14   C     C_R   0.886040 0.616010 0.545713 0.207523
C15   C     C_R   0.926092 0.371609 0.427494 0.233052
C16   C     C_R   0.103718 0.628760 0.473987 0.197927
C17   C     C_R   0.618659 0.875902 0.443374 0.205606
C18   C     C_R   0.386041 0.116012 0.545713 0.207529
C19   C     C_R   0.426092 0.871611 0.427491 0.233052
C20   C     C_R   0.603718 0.128760 0.473987 0.197926
C21   C     C_R   0.721975 0.266049 0.950152 -0.014621
C22   C     C_R   0.276729 0.733037 0.050181 -0.013711
C23   C     C_R   0.268985 0.279094 0.056471 -0.015471
C24   C     C_R   0.706335 0.754217 0.968028 -0.010740
C25   C     C_R   0.221969 0.766035 0.950156 -0.014625
C26   C     C_R   0.776736 0.233054 0.050177 -0.013715
C27   C     C_R   0.769001 0.779074 0.056454 -0.015479
C28   C     C_R   0.206317 0.254237 0.968047 -0.010760
C29   C     C_R   0.757790 0.206234 0.923347 -0.026544
C30   C     C_R   0.241048 0.793079 0.076808 -0.025934
C31   C     C_R   0.230434 0.222879 0.087536 -0.032201
C32   C     C_R   0.743175 0.811527 0.938389 -0.022296
C33   C     C_R   0.257785 0.706221 0.923348 -0.026544
C34   C     C_R   0.741059 0.293100 0.076799 -0.025937
C35   C     C_R   0.730469 0.722840 0.087488 -0.032105
C36   C     C_R   0.243168 0.311535 0.938391 -0.022287
C37   C     C_R   0.781952 0.186995 0.978330 0.092169
C38   C     C_R   0.217066 0.812409 0.021504 0.090717
C39   C     C_R   0.194630 0.217631 0.049949 0.094788
C40   C     C_R   0.775675 0.822707 0.981537 0.097276
C41   C     C_R   0.281948 0.686982 0.978330 0.092167
C42   C     C_R   0.717075 0.312427 0.021496 0.090720
C43   C     C_R   0.694662 0.717593 0.049911 0.094801
C44   C     C_R   0.275671 0.322710 0.981533 0.097304
C45   C     C_R   0.658850 0.343500 0.926382 0.043070
C46   C     C_R   0.340299 0.655717 0.073238 0.043574
C47   C     C_R   0.341448 0.346300 0.066816 0.055992
C48   C     C_R   0.633187 0.689091 0.960281 0.053079
C49   C     C_R   0.158846 0.843491 0.926386 0.043069
C50   C     C_R   0.840302 0.155728 0.073237 0.043574
C51   C     C_R   0.841449 0.846293 0.066825 0.055970
C52   C     C_R   0.133172 0.189108 0.960292 0.053070
C53   C     C_R   0.621514 0.350754 0.891882 -0.165305
C54   C     C_R   0.377612 0.648284 0.107824 -0.154194
C55   C     C_R   0.377575 0.352907 0.104899 -0.159830
C56   C     C_R   0.607527 0.666564 0.908738 -0.169936
C57   C     C_R   0.121512 0.850750 0.891883 -0.165307
C58   C     C_R   0.877615 0.148289 0.107824 -0.154194
C59   C     C_R   0.877576 0.852901 0.104904 -0.159835
C60   C     C_R   0.107520 0.166571 0.908743 -0.169942
C61   C     C_R   0.624842 0.303287 0.824416 0.082338
C62   C     C_R   0.374296 0.695849 0.174670 0.095756
C63   C     C_R   0.371895 0.307371 0.175126 0.073979
C64   C     C_R   0.621054 0.699829 0.825395 0.081936
C65   C     C_R   0.124841 0.803284 0.824416 0.082342
C66   C     C_R   0.874299 0.195852 0.174670 0.095768
C67   C     C_R   0.871900 0.807361 0.175126 0.073989
C68   C     C_R   0.121052 0.199829 0.825394 0.081948
C69   C     C_R   0.671286 0.261507 0.779493 -0.144700
C70   C     C_R   0.327792 0.737365 0.220367 -0.142020
C71   C     C_R   0.324473 0.268723 0.220872 -0.135701
C72   C     C_R   0.669353 0.738897 0.780698 -0.140003
C73   C     C_R   0.171284 0.761503 0.779493 -0.144705
C74   C     C_R   0.827796 0.237371 0.220366 -0.142024
C75   C     C_R   0.824481 0.768704 0.220868 -0.135724
C76   C     C_R   0.169350 0.238896 0.780698 -0.139999
C77   C     C_R   0.698849 0.239109 0.828378 -0.020639
C78   C     C_R   0.299833 0.759659 0.172056 -0.023568
C79   C     C_R   0.295362 0.248566 0.173460 -0.025785
C80   C     C_R   0.692187 0.768651 0.834205 -0.023678
C81   C     C_R   0.198846 0.739102 0.828378 -0.020639
C82   C     C_R   0.799841 0.259672 0.172052 -0.023564
C83   C     C_R   0.795376 0.748538 0.173446 -0.025735
C84   C     C_R   0.192180 0.268655 0.834209 -0.023682
C85   C     C_R   0.694390 0.128516 0.523332 0.944369
C86   C     C_R   0.308653 0.870447 0.465258 0.933667
C87   C     C_R   0.305029 0.127639 0.477922 0.949162
C88   C     C_R   0.695297 0.871839 0.520917 0.945331
C89   C     C_R   0.194390 0.628516 0.523332 0.944341
C90   C     C_R   0.808653 0.370447 0.465257 0.933652
C91   C     C_R   0.805030 0.627639 0.477918 0.949153
C92   C     C_R   0.195297 0.371839 0.520918 0.945333
C93   C     C_R   0.692918 0.282255 0.902267 0.029162
C94   C     C_R   0.305811 0.716685 0.098019 0.024324
C95   C     C_R   0.301898 0.291137 0.098843 0.024449
C96   C     C_R   0.677489 0.736937 0.920314 0.026807
C97   C     C_R   0.192914 0.782245 0.902270 0.029165
C98   C     C_R   0.805818 0.216699 0.098016 0.024328
C99   C     C_R   0.801910 0.791117 0.098833 0.024468
C100  C     C_R   0.177476 0.236951 0.920325 0.026807
C101  C     C_R   0.664279 0.395498 0.982513 -0.181265
C102  C     C_R   0.335621 0.604445 0.015832 -0.183179
C103  C     C_R   0.345686 0.389014 0.993475 -0.199872
C104  C     C_R   0.613105 0.671542 0.054088 -0.183773
C105  C     C_R   0.164274 0.895485 0.982521 -0.181269
C106  C     C_R   0.835622 0.104456 0.015834 -0.183185
C107  C     C_R   0.845673 0.889026 0.993509 -0.199857
C108  C     C_R   0.113078 0.171576 0.054105 -0.183769
C109  C     C_R   0.693511 0.380632 0.027597 -0.218166
C110  C     C_R   0.306372 0.619225 0.970799 -0.220328
C111  C     C_R   0.317454 0.373361 0.947800 -0.237444
C112  C     C_R   0.643703 0.684240 0.097110 -0.236623
C113  C     C_R   0.193502 0.880615 0.027610 -0.218152
C114  C     C_R   0.806372 0.119237 0.970804 -0.220324
C115  C     C_R   0.817440 0.873381 0.947834 -0.237415
C116  C     C_R   0.143665 0.184289 0.097143 -0.236531
C117  C     C_R   0.734253 0.178578 0.803181 0.177027
C118  C     C_R   0.264622 0.820446 0.197088 0.174724
C119  C     C_R   0.265129 0.183675 0.190853 0.172396
C120  C     C_R   0.721831 0.834788 0.813935 0.143035
C121  C     C_R   0.234251 0.678571 0.803178 0.177012
C122  C     C_R   0.764637 0.320465 0.197078 0.174677
C123  C     C_R   0.765146 0.683641 0.190829 0.172110
C124  C     C_R   0.221826 0.334791 0.813932 0.143002
C125  C     C_R   0.769317 0.169814 0.840408 0.180806
C126  C     C_R   0.229830 0.829898 0.159407 0.172761
C127  C     C_R   0.233134 0.170241 0.147578 0.184883
C128  C     C_R   0.740821 0.859692 0.874115 0.186326
C129  C     C_R   0.269315 0.669806 0.840406 0.180812
C130  C     C_R   0.729846 0.329925 0.159393 0.172785
C131  C     C_R   0.733187 0.670188 0.147494 0.184924
C132  C     C_R   0.240823 0.359694 0.874103 0.186328
C133  C     C_R   0.070569 0.104352 0.937470 0.924715
C134  C     C_R   0.922204 0.904523 0.069559 0.926327
C135  C     C_R   0.921647 0.094994 0.070702 0.911413
C136  C     C_R   0.077794 0.904237 0.929594 0.943023
C137  C     C_R   0.570574 0.604349 0.937466 0.924721
C138  C     C_R   0.422204 0.404524 0.069558 0.926342
C139  C     C_R   0.421646 0.594992 0.070702 0.911431
C140  C     C_R   0.577795 0.404239 0.929593 0.943024
C141  C     C_R   0.547966 0.129042 0.499173 0.005561
C142  C     C_R   0.466620 0.866824 0.453384 0.016847
C143  C     C_R   0.440437 0.123480 0.527668 0.012880
C144  C     C_R   0.565054 0.869151 0.457635 0.010141
C145  C     C_R   0.047966 0.629042 0.499172 0.005561
C146  C     C_R   0.966620 0.366822 0.453388 0.016848
C147  C     C_R   0.940436 0.623479 0.527667 0.012884
C148  C     C_R   0.065054 0.369151 0.457636 0.010142
C149  C     C_R   0.516640 0.193160 0.519654 0.188138
C150  C     C_R   0.492169 0.800747 0.453687 0.186086
C151  C     C_R   0.463240 0.190803 0.531327 0.187274
C152  C     C_R   0.541943 0.801892 0.455634 0.183366
C153  C     C_R   0.016640 0.693159 0.519652 0.188134
C154  C     C_R   0.992169 0.300745 0.453692 0.186086
C155  C     C_R   0.963240 0.690803 0.531324 0.187273
C156  C     C_R   0.041944 0.301891 0.455635 0.183352
C157  C     C_R   0.472813 0.060672 0.505426 -0.042115
C158  C     C_R   0.533590 0.932475 0.474936 -0.041985
C159  C     C_R   0.524518 0.062867 0.497607 -0.040539
C160  C     C_R   0.484036 0.931099 0.474686 -0.044070
C161  C     C_R   0.972812 0.560671 0.505427 -0.042115
C162  C     C_R   0.033590 0.432474 0.474937 -0.041984
C163  C     C_R   0.024518 0.562866 0.497607 -0.040539
C164  C     C_R   0.984036 0.431098 0.474689 -0.044070
C165  C     C_R   0.953693 0.495215 0.489862 0.026228
C166  C     C_R   0.054037 0.498619 0.484898 0.027917
C167  C     C_R   0.453693 0.995216 0.489860 0.026229
C168  C     C_R   0.554037 0.998619 0.484897 0.027917
C169  C     C_R   0.890677 0.432302 0.455281 -0.023169
C170  C     C_R   0.125259 0.565827 0.492738 -0.039111
C171  C     C_R   0.130980 0.436514 0.480999 -0.036904
C172  C     C_R   0.873553 0.557715 0.504660 -0.037967
C173  C     C_R   0.390676 0.932304 0.455281 -0.023165
C174  C     C_R   0.625259 0.065827 0.492738 -0.039120
C175  C     C_R   0.630980 0.936514 0.480999 -0.036898
C176  C     C_R   0.373553 0.057717 0.504661 -0.037969
C177  C     C_R   0.842033 0.434258 0.450147 -0.232268
C178  C     C_R   0.166897 0.564624 0.518082 -0.238743
C179  C     C_R   0.169372 0.436831 0.513189 -0.238901
C180  C     C_R   0.833001 0.560968 0.476981 -0.248927
C181  C     C_R   0.342031 0.934258 0.450152 -0.232278
C182  C     C_R   0.666898 0.064624 0.518080 -0.238746
C183  C     C_R   0.669372 0.936831 0.513188 -0.238905
C184  C     C_R   0.332999 0.060969 0.476987 -0.248928
C185  C     C_R   0.822181 0.499693 0.440890 0.464720
C186  C     C_R   0.179728 0.500418 0.544682 0.454703
C187  C     C_R   0.322174 0.999692 0.440904 0.464693
C188  C     C_R   0.679730 0.000419 0.544679 0.454696
H1    H     H_    0.647438 0.449026 0.990511 0.172342
H2    H     H_    0.353282 0.551663 0.006680 0.155103
H3    H     H_    0.370867 0.435349 0.966374 0.174190
H4    H     H_    0.572723 0.650863 0.097806 0.173249
H5    H     H_    0.147435 0.949015 0.990520 0.172348
H6    H     H_    0.853281 0.051674 0.006684 0.155094
H7    H     H_    0.870844 0.935373 0.966432 0.174170
H8    H     H_    0.072694 0.150900 0.097814 0.173224
H9    H     H_    0.698344 0.424118 0.065679 0.166631
H10   H     H_    0.302454 0.576152 0.931194 0.165937
H11   H     H_    0.329421 0.402216 0.884687 0.164656
H12   H     H_    0.626536 0.669190 0.168631 0.162294
H13   H     H_    0.198333 0.924098 0.065699 0.166618
H14   H     H_    0.802449 0.076162 0.931204 0.165939
H15   H     H_    0.829394 0.902259 0.884743 0.164656
H16   H     H_    0.126479 0.169269 0.168677 0.162260
O1    O     O_R   0.746490 0.236330 0.638080 -0.619207
O2    O     O_R   0.253510 0.763670 0.361920 -0.635286
O3    O     O_R   0.253510 0.236330 0.361920 -0.635911
O4    O     O_R   0.746490 0.763670 0.638080 -0.641782
O5    O     O_R   0.246490 0.736330 0.638080 -0.619206
O6    O     O_R   0.753510 0.263670 0.361920 -0.635286
O7    O     O_R   0.753510 0.736330 0.361920 -0.635958
O8    O     O_R   0.246490 0.263670 0.638080 -0.641790
O9    O     O_R   0.674170 0.186160 0.516270 -0.649964
O10   O     O_R   0.325830 0.813840 0.483730 -0.634944
O11   O     O_R   0.325830 0.186160 0.483730 -0.642782
O12   O     O_R   0.674170 0.813840 0.516270 -0.645398
O13   O     O_R   0.174170 0.686160 0.516270 -0.649962
O14   O     O_R   0.825830 0.313840 0.483730 -0.634937
O15   O     O_R   0.825830 0.686160 0.483730 -0.642776
O16   O     O_R   0.174170 0.313840 0.516270 -0.645404
O17   O     O_R   0.739960 0.127620 0.525000 -0.584619
O18   O     O_R   0.260040 0.872380 0.475000 -0.586040
O19   O     O_R   0.260040 0.127620 0.475000 -0.573194
O20   O     O_R   0.739960 0.872380 0.525000 -0.584664
O21   O     O_R   0.239960 0.627620 0.525000 -0.584628
O22   O     O_R   0.760040 0.372380 0.475000 -0.586077
O23   O     O_R   0.760040 0.627620 0.475000 -0.573242
O24   O     O_R   0.239960 0.372380 0.525000 -0.584675
O25   O     O_R   0.680700 0.294870 0.629350 -0.611271
O26   O     O_R   0.319300 0.705130 0.370650 -0.621092
O27   O     O_R   0.319300 0.294870 0.370650 -0.611824
O28   O     O_R   0.680700 0.705130 0.629350 -0.614173
O29   O     O_R   0.180700 0.794870 0.629350 -0.611270
O30   O     O_R   0.819300 0.205130 0.370650 -0.621092
O31   O     O_R   0.819300 0.794870 0.370650 -0.611815
O32   O     O_R   0.180700 0.205130 0.629350 -0.614177
O33   O     O_R   0.062020 0.072840 0.007170 -0.644843
O34   O     O_R   0.937980 0.927160 0.992830 -0.647203
O35   O     O_R   0.937980 0.072840 0.992830 -0.639308
O36   O     O_R   0.062020 0.927160 0.007170 -0.625888
O37   O     O_R   0.562020 0.572840 0.007170 -0.644861
O38   O     O_R   0.437980 0.427160 0.992830 -0.647223
O39   O     O_R   0.437980 0.572840 0.992830 -0.639306
O40   O     O_R   0.562020 0.427160 0.007170 -0.625889
O41   O     O_R   0.947860 0.073950 0.109290 -0.615211
O42   O     O_R   0.052140 0.926050 0.890710 -0.604842
O43   O     O_R   0.052140 0.073950 0.890710 -0.604105
O44   O     O_R   0.947860 0.926050 0.109290 -0.606959
O45   O     O_R   0.447860 0.573950 0.109290 -0.615207
O46   O     O_R   0.552140 0.426050 0.890710 -0.604847
O47   O     O_R   0.552140 0.573950 0.890710 -0.604106
O48   O     O_R   0.447860 0.426050 0.109290 -0.606957
Zn1   Zn    Zn3+2 0.792340 0.208750 0.507670 0.932745
Zn2   Zn    Zn3+2 0.207660 0.791250 0.492330 0.921539
Zn3   Zn    Zn3+2 0.207660 0.208750 0.492330 0.930740
Zn4   Zn    Zn3+2 0.792340 0.791250 0.507670 0.921419
Zn5   Zn    Zn3+2 0.292340 0.708750 0.507670 0.932739
Zn6   Zn    Zn3+2 0.707660 0.291250 0.492330 0.921527
Zn7   Zn    Zn3+2 0.707660 0.708750 0.492330 0.930663
Zn8   Zn    Zn3+2 0.292340 0.291250 0.507670 0.921412
Zn9   Zn    Zn3+2 0.505960 0.500000 0.080520 0.919024
Zn10  Zn    Zn3+2 0.494040 0.500000 0.919480 0.919942
Zn11  Zn    Zn3+2 0.005960 0.000000 0.080520 0.919032
Zn12  Zn    Zn3+2 0.994040 0.000000 0.919480 0.919956
C189  C     C_3   0.067013 0.231955 0.464395 -0.902919
H17   H     H_    0.036266 0.197431 0.519166 0.233593
H18   H     H_    0.086113 0.202388 0.397898 0.235871
H19   H     H_    0.097143 0.240505 0.487489 0.250646
C190  C     C_3   0.934050 0.760674 0.536095 -0.914676
H20   H     H_    0.963131 0.804642 0.498960 0.242535
H21   H     H_    0.909634 0.755453 0.500958 0.253341
H22   H     H_    0.907725 0.777138 0.608951 0.237006
C191  C     C_3   0.963926 0.229640 0.461365 -0.899283
H23   H     H_    0.959911 0.197852 0.520319 0.231824
H24   H     H_    0.921130 0.236661 0.477754 0.248333
H25   H     H_    0.986977 0.198189 0.396776 0.239389
C192  C     C_3   0.037541 0.762596 0.538310 -0.922415
H26   H     H_    0.004157 0.791750 0.597461 0.247405
H27   H     H_    0.069064 0.752678 0.558311 0.251782
H28   H     H_    0.054592 0.797444 0.476451 0.232782
C193  C     C_3   0.567011 0.731956 0.464400 -0.902945
H29   H     H_    0.536263 0.697435 0.519173 0.233595
H30   H     H_    0.586109 0.702386 0.397905 0.235882
H31   H     H_    0.597141 0.740506 0.487492 0.250644
C194  C     C_3   0.434049 0.260675 0.536102 -0.914675
H32   H     H_    0.463129 0.304647 0.498977 0.242534
H33   H     H_    0.409637 0.255457 0.500959 0.253338
H34   H     H_    0.407720 0.277133 0.608961 0.237005
C195  C     C_3   0.463928 0.729641 0.461355 -0.899275
H35   H     H_    0.459912 0.697851 0.520308 0.231823
H36   H     H_    0.421133 0.736662 0.477743 0.248333
H37   H     H_    0.486980 0.698192 0.396765 0.239394
C196  C     C_3   0.537542 0.262596 0.538315 -0.922421
H38   H     H_    0.504158 0.291747 0.597469 0.247402
H39   H     H_    0.569066 0.252677 0.558313 0.251784
H40   H     H_    0.554590 0.297446 0.476458 0.232782
O49   O     O_3   0.800964 0.504796 0.382300 -0.571994
C197  C     C_3   0.845987 0.506001 0.291629 -0.361947
H41   H     H_    0.873857 0.459162 0.276451 0.148160
H42   H     H_    0.869193 0.556979 0.278406 0.160271
H43   H     H_    0.831396 0.501891 0.241955 0.189477
O50   O     O_3   0.195326 0.499812 0.611197 -0.576534
C198  C     C_3   0.146859 0.504084 0.697582 -0.374692
H44   H     H_    0.121383 0.455287 0.710345 0.162264
H45   H     H_    0.122681 0.553357 0.703701 0.154654
H46   H     H_    0.156987 0.507506 0.753269 0.186927
O51   O     O_3   0.300932 0.004792 0.382351 -0.571963
C199  C     C_3   0.345936 0.005977 0.291663 -0.361926
H47   H     H_    0.369165 0.056938 0.278414 0.160264
H48   H     H_    0.331318 0.001890 0.242024 0.189542
H49   H     H_    0.373790 0.959116 0.276467 0.148127
O52   O     O_3   0.695333 0.999815 0.611187 -0.576526
C200  C     C_3   0.646867 0.004053 0.697578 -0.374664
H50   H     H_    0.621422 0.955219 0.710347 0.162246
H51   H     H_    0.622651 0.053293 0.703704 0.154649
H52   H     H_    0.657001 0.007518 0.753257 0.186936
C201  C     C_3   0.164942 0.340402 0.358824 -0.808633
H53   H     H_    0.204681 0.365979 0.339426 0.220556
H54   H     H_    0.168734 0.282406 0.368257 0.265645
H55   H     H_    0.158053 0.346842 0.299299 0.218856
C202  C     C_3   0.840276 0.650232 0.632029 -0.822105
H56   H     H_    0.849506 0.646091 0.689194 0.222363
H57   H     H_    0.801040 0.622068 0.654666 0.221273
H58   H     H_    0.834135 0.707553 0.622405 0.270598
C203  C     C_3   0.935239 0.329545 0.343369 -0.905598
H59   H     H_    0.920864 0.360697 0.302827 0.210781
H60   H     H_    0.979419 0.319331 0.296749 0.239651
H61   H     H_    0.914197 0.277177 0.361815 0.266907
C204  C     C_3   0.141339 0.674404 0.391453 -0.773094
H62   H     H_    0.142827 0.730874 0.411188 0.252608
H63   H     H_    0.183507 0.652255 0.355868 0.232313
H64   H     H_    0.127062 0.674683 0.340306 0.214241
C205  C     C_3   0.664941 0.840401 0.358825 -0.808613
H65   H     H_    0.704681 0.865976 0.339429 0.220564
H66   H     H_    0.668732 0.782404 0.368258 0.265638
H67   H     H_    0.658054 0.846843 0.299299 0.218853
C206  C     C_3   0.340276 0.150234 0.632029 -0.822110
H68   H     H_    0.349507 0.146097 0.689193 0.222362
H69   H     H_    0.301041 0.122067 0.654669 0.221271
H70   H     H_    0.334134 0.207554 0.622402 0.270601
C207  C     C_3   0.435239 0.829549 0.343365 -0.905603
H71   H     H_    0.420865 0.860705 0.302823 0.210784
H72   H     H_    0.479419 0.819334 0.296745 0.239658
H73   H     H_    0.414196 0.777182 0.361808 0.266906
C208  C     C_3   0.641339 0.174404 0.391453 -0.773088
H74   H     H_    0.642827 0.230875 0.411187 0.252609
H75   H     H_    0.683507 0.152256 0.355868 0.232313
H76   H     H_    0.627062 0.174682 0.340306 0.214239
C209  C     C_3   0.580658 0.296648 0.798276 -0.809634
H77   H     H_    0.586392 0.247352 0.756730 0.219943
H78   H     H_    0.540134 0.291736 0.861171 0.230247
H79   H     H_    0.581055 0.343847 0.757345 0.260908
C210  C     C_3   0.420147 0.705995 0.195422 -0.845667
H80   H     H_    0.416571 0.759746 0.225596 0.224017
H81   H     H_    0.419157 0.664038 0.243418 0.261917
H82   H     H_    0.460236 0.705561 0.131059 0.229141
C211  C     C_3   0.416527 0.296613 0.199834 -0.803230
H83   H     H_    0.410371 0.246279 0.239554 0.221633
H84   H     H_    0.456752 0.290694 0.136384 0.227909
H85   H     H_    0.417358 0.342447 0.241688 0.260768
C212  C     C_3   0.581654 0.699297 0.788262 -0.800251
H86   H     H_    0.586938 0.747762 0.745848 0.227309
H87   H     H_    0.587697 0.650284 0.746239 0.261126
H88   H     H_    0.538861 0.701648 0.845640 0.224397
C213  C     C_3   0.080657 0.796649 0.798273 -0.809633
H89   H     H_    0.086391 0.747354 0.756726 0.219941
H90   H     H_    0.040133 0.791737 0.861166 0.230247
H91   H     H_    0.081056 0.843849 0.757342 0.260910
C214  C     C_3   0.920149 0.205993 0.195425 -0.845674
H92   H     H_    0.916575 0.259743 0.225600 0.224021
H93   H     H_    0.919157 0.164035 0.243422 0.261917
H94   H     H_    0.960239 0.205557 0.131064 0.229133
C215  C     C_3   0.916531 0.796612 0.199838 -0.803236
H95   H     H_    0.910377 0.746280 0.239562 0.221632
H96   H     H_    0.956757 0.790693 0.136389 0.227911
H97   H     H_    0.917359 0.842450 0.241689 0.260768
C216  C     C_3   0.081653 0.199293 0.788256 -0.800240
H98   H     H_    0.086938 0.247758 0.745841 0.227312
H99   H     H_    0.087701 0.150280 0.746231 0.261125
H100  H     H_    0.038860 0.201642 0.845630 0.224393
C217  C     C_3   0.731336 0.117788 0.745645 -0.782471
H101  H     H_    0.696344 0.124012 0.733588 0.226652
H102  H     H_    0.769512 0.113648 0.678430 0.262902
H103  H     H_    0.725371 0.066561 0.783157 0.209005
C218  C     C_3   0.267951 0.881388 0.254019 -0.774454
H104  H     H_    0.230403 0.884750 0.322221 0.263080
H105  H     H_    0.303851 0.875902 0.263805 0.222923
H106  H     H_    0.272380 0.932827 0.217385 0.208517
C219  C     C_3   0.274994 0.122304 0.240194 -0.768740
H107  H     H_    0.304293 0.134773 0.263765 0.231159
H108  H     H_    0.236053 0.104321 0.299796 0.258682
H109  H     H_    0.294554 0.077753 0.190726 0.198503
C220  C     C_3   0.726083 0.884878 0.738990 -0.739235
H110  H     H_    0.767560 0.881121 0.678166 0.252137
H111  H     H_    0.694471 0.873856 0.719850 0.232287
H112  H     H_    0.719908 0.941632 0.759906 0.220174
C221  C     C_3   0.231337 0.617784 0.745637 -0.782451
H113  H     H_    0.196345 0.624008 0.733579 0.226651
H114  H     H_    0.269513 0.613646 0.678423 0.262901
H115  H     H_    0.225371 0.566556 0.783146 0.209007
C222  C     C_3   0.767970 0.381402 0.254014 -0.774383
H116  H     H_    0.730422 0.384764 0.322216 0.263075
H117  H     H_    0.803869 0.375909 0.263802 0.222926
H118  H     H_    0.772403 0.432844 0.217383 0.208550
C223  C     C_3   0.774942 0.622297 0.240291 -0.768336
H119  H     H_    0.804268 0.634749 0.263810 0.231135
H120  H     H_    0.735981 0.604434 0.299942 0.258595
H121  H     H_    0.794426 0.577661 0.190953 0.198557
C224  C     C_3   0.226072 0.384878 0.738988 -0.739170
H122  H     H_    0.267552 0.381126 0.678167 0.252137
H123  H     H_    0.194464 0.373845 0.719841 0.232289
H124  H     H_    0.219887 0.441633 0.759911 0.220167
C225  C     C_3   0.823974 0.133979 0.779129 -0.932666
H125  H     H_    0.855128 0.149122 0.798014 0.250429
H126  H     H_    0.819694 0.074794 0.780043 0.233040
H127  H     H_    0.840622 0.152711 0.707108 0.244071
C226  C     C_3   0.176385 0.869179 0.218785 -0.940392
H128  H     H_    0.182763 0.928228 0.214617 0.241689
H129  H     H_    0.144699 0.854795 0.200849 0.252174
H130  H     H_    0.159123 0.852589 0.291740 0.239092
C227  C     C_3   0.209050 0.095341 0.155718 -0.945633
H131  H     H_    0.172511 0.088645 0.224616 0.235868
H132  H     H_    0.199048 0.083107 0.101075 0.249798
H133  H     H_    0.238651 0.052133 0.144891 0.238575
C228  C     C_3   0.743779 0.940288 0.886141 -0.963047
H134  H     H_    0.745224 0.954917 0.949128 0.251149
H135  H     H_    0.779308 0.963079 0.824578 0.235380
H136  H     H_    0.705648 0.966635 0.897197 0.243940
C229  C     C_3   0.323973 0.633977 0.779124 -0.932667
H137  H     H_    0.355126 0.649121 0.798011 0.250429
H138  H     H_    0.319696 0.574791 0.780035 0.233050
H139  H     H_    0.340621 0.652711 0.707105 0.244070
C230  C     C_3   0.676408 0.369220 0.218766 -0.940411
H140  H     H_    0.682795 0.428267 0.214582 0.241719
H141  H     H_    0.644718 0.354838 0.200838 0.252168
H142  H     H_    0.659145 0.352640 0.291725 0.239092
C231  C     C_3   0.709190 0.595250 0.155500 -0.945861
H143  H     H_    0.672749 0.588380 0.224460 0.235980
H144  H     H_    0.699068 0.583067 0.100997 0.249797
H145  H     H_    0.738904 0.552129 0.144346 0.238584
C232  C     C_3   0.243814 0.440292 0.886086 -0.963010
H146  H     H_    0.245287 0.454937 0.949047 0.251128
H147  H     H_    0.279342 0.463054 0.824489 0.235385
H148  H     H_    0.205683 0.466657 0.897167 0.243931

loop_
_geom_bond_atom_site_label_1
_geom_bond_atom_site_label_2
_ccdc_geom_bond_type
O7    Zn7   S    
C211  H83   S    
C62   C210  S    
C22   C94   A    
C228  H134  S    
C9    C169  A    
C34   C42   A    
C206  H70   S    
C17   C205  S    
C206  H68   S    
C181  C187  A    
C103  H3    S    
C198  H45   S    
C231  H143  S    
C193  H31   S    
C67   C215  S    
C27   C99   A    
C85   C182  S    
C170  C178  A    
C4    O28   A    
C12   C174  A    
C42   C109  A    
O31   Zn4   S    
C101  H1    S    
C24   C96   A    
C205  H67   S    
C110  H10   S    
C104  H4    S    
O16   Zn3   S    
C191  H25   S    
C30   C38   A    
C216  H100  S    
C222  H117  S    
C109  H9    S    
C115  H15   S    
O39   Zn10  S    
C113  H13   S    
C147  C155  A    
C20   C208  S    
C199  H49   S    
C214  H94   S    
C137  O37   A    
C143  C151  A    
C125  C225  S    
C90   C177  S    
C225  H126  S    
O37   Zn9   S    
C11   C167  A    
C131  C231  S    
C76   C84   A    
C139  O45   A    
C73   C81   A    
C210  H81   S    
C14   C202  S    
C4    O4    A    
C162  C164  A    
O18   Zn2   S    
C212  H88   S    
C84   C100  A    
C215  H97   S    
C57   C65   A    
C232  H148  S    
C120  C220  S    
C27   C35   A    
C10   C171  A    
C205  H65   S    
C21   C29   A    
C81   C121  A    
C140  O40   A    
C87   O19   A    
C154  C191  S    
C24   C32   A    
O5    Zn5   S    
C198  H44   S    
C146  C154  A    
C230  H142  S    
C208  H76   S    
C119  C219  S    
C63   C71   A    
C211  H85   S    
C190  H21   S    
C219  H107  S    
C228  H136  S    
C223  H121  S    
O6    Zn6   S    
C197  H41   S    
C18   C206  S    
O20   Zn4   S    
C175  C183  A    
C231  H145  S    
C176  C184  A    
C48   C96   A    
C26   C34   A    
C90   O22   A    
C200  H52   S    
C220  H110  S    
C3    O3    A    
C221  H114  S    
C148  C162  A    
C194  H33   S    
C183  C188  A    
C142  C150  A    
C116  H16   S    
C21   C93   A    
C78   C94   A    
C9    C165  A    
C23   C95   A    
O13   Zn2   S    
O32   Zn3   S    
C232  H147  S    
C49   C97   A    
C21   C42   A    
C40   C115  A    
C121  C221  S    
C89   O21   A    
C209  H79   S    
C51   C107  A    
C202  H56   S    
C24   C43   A    
C224  H122  S    
C213  H89   S    
C112  H12   S    
C161  C165  A    
C17   C175  A    
C218  H105  S    
C18   C176  A    
C209  H77   S    
C29   C125  A    
O9    Zn6   S    
C69   C77   A    
C31   C127  A    
C45   C93   A    
C174  C182  A    
C71   C79   A    
C222  H116  S    
C149  C196  S    
C106  H6    S    
C179  C186  A    
C229  H137  S    
C65   C213  S    
C11   C176  A    
C17   C144  A    
C105  C113  A    
C18   C143  A    
C78   C118  A    
C138  O48   A    
C149  C151  A    
C200  H51   S    
C66   C74   A    
C8    C76   S    
C49   C57   A    
O52   C200  S    
C124  C132  A    
C203  H60   S    
O46   Zn10  S    
C52   C60   A    
C59   C67   A    
C53   C61   A    
C141  C159  A    
C20   C174  A    
O28   Zn7   S    
C55   C63   A    
C86   C181  S    
C56   C64   A    
C2    O2    A    
C139  O39   A    
C10   C166  A    
O25   Zn6   S    
C6    O30   A    
C45   C53   A    
C192  H26   S    
C204  H63   S    
C171  C179  A    
C186  O50   S    
C133  O33   A    
C151  C194  S    
C169  C177  A    
C226  H129  S    
C199  H48   S    
C51   C59   A    
C207  H72   S    
C220  H112  S    
O17   Zn1   S    
C50   C98   A    
C140  O46   A    
C213  H91   S    
C3    O27   A    
C104  C112  A    
C145  C163  A    
C230  H141  S    
C146  C164  A    
C14   C147  A    
C52   C100  A    
C16   C204  S    
C16   C145  A    
C178  C186  A    
C86   O10   A    
C196  H38   S    
C25   C38   A    
C54   C139  S    
C46   C94   A    
O26   Zn5   S    
C27   C40   A    
C63   C211  S    
C202  H58   S    
C91   C180  S    
C195  H35   S    
O38   Zn10  S    
C136  O42   A    
C64   C212  S    
C182  C188  A    
C89   C178  S    
C224  H124  S    
C189  H18   S    
C28   C36   A    
O29   Zn2   S    
C25   C97   A    
C227  H133  S    
C108  H8    S    
O41   Zn11  S    
C217  H103  S    
C222  H118  S    
O1    Zn1   S    
C219  H108  S    
C229  H139  S    
C22   C30   A    
C20   C141  A    
C15   C146  A    
C7    O7    A    
O24   Zn8   S    
C58   C135  S    
C193  H30   S    
C5    O5    A    
C59   C134  S    
C184  C187  A    
C32   C128  A    
C144  C152  A    
C136  O36   A    
C221  H113  S    
C56   C137  S    
C191  H24   S    
C82   C122  A    
C61   C209  S    
C5    C73   S    
C15   C203  S    
C216  H99   S    
C2    O26   A    
C13   C171  A    
C67   C75   A    
C157  C159  A    
C192  H28   S    
O12   Zn7   S    
C8    O8    A    
C117  C125  A    
C25   C33   A    
C214  H93   S    
C119  C127  A    
C225  H125  S    
C130  C230  S    
O33   Zn11  S    
C82   C98   A    
C135  O41   A    
O34   Zn12  S    
C127  C227  S    
O22   Zn6   S    
C80   C120  A    
C210  H80   S    
C155  C190  S    
C158  C168  A    
C199  H47   S    
C212  H87   S    
C227  H131  S    
C164  C165  A    
C196  H40   S    
C215  H96   S    
C122  C222  S    
C22   C41   A    
C70   C78   A    
C101  C109  A    
C195  H37   S    
C177  C185  A    
C103  C111  A    
O49   C197  S    
C134  O44   A    
C201  H54   S    
C161  C163  A    
C162  C166  A    
C19   C207  S    
C79   C119  A    
C68   C216  S    
C114  H14   S    
O10   Zn5   S    
C208  H75   S    
C154  C156  A    
C172  C180  A    
C205  H66   S    
C173  C181  A    
C211  H84   S    
C118  C218  S    
C83   C99   A    
C190  H20   S    
C158  C160  A    
C228  H135  S    
C197  H42   S    
C74   C82   A    
C206  H69   S    
C6    C74   S    
C198  H46   S    
C231  H144  S    
C7    O31   A    
C47   C103  A    
O51   C199  S    
C50   C58   A    
C163  C166  A    
C13   C201  S    
C147  C161  A    
C221  H115  S    
C38   C113  A    
C49   C105  A    
C54   C62   A    
C28   C39   A    
C123  C131  A    
O8    Zn8   S    
O19   Zn3   S    
C1    C69   S    
C23   C44   A    
C197  H43   S    
C188  O52   S    
C3    C71   S    
C19   C173  A    
C79   C95   A    
C194  H32   S    
C92   C179  S    
C220  H111  S    
C46   C54   A    
C153  C155  A    
C45   C101  A    
C133  O43   A    
C8    O32   A    
C19   C142  A    
C157  C167  A    
C102  C110  A    
C68   C76   A    
C35   C131  A    
C4    C72   S    
C210  H82   S    
C218  H104  S    
C33   C129  A    
C91   O23   A    
C121  C129  A    
C120  C128  A    
C26   C37   A    
C37   C114  A    
C10   C170  A    
O27   Zn8   S    
C33   C41   A    
C108  C116  A    
C36   C132  A    
C128  C228  S    
C75   C83   A    
C200  H50   S    
C77   C93   A    
C102  H2    S    
C185  O49   S    
C203  H59   S    
O42   Zn12  S    
C134  O34   A    
C44   C111  A    
C16   C170  A    
C60   C68   A    
C72   C80   A    
C39   C116  A    
C190  H22   S    
C29   C37   A    
C217  H102  S    
C87   O11   A    
C9    C172  A    
C148  C156  A    
C83   C123  A    
C2    C70   S    
C60   C133  S    
C23   C31   A    
C30   C126  A    
C201  H55   S    
C53   C140  S    
C204  H62   S    
C107  H7    S    
C226  H128  S    
C141  C149  A    
C207  H71   S    
C105  H5    S    
C46   C102  A    
C55   C138  S    
C81   C97   A    
C106  C114  A    
C194  H34   S    
C77   C117  A    
C213  H90   S    
C153  C192  S    
C123  C223  S    
C223  H120  S    
C48   C104  A    
C65   C73   A    
C159  C168  A    
C15   C169  A    
C160  C167  A    
C92   O16   A    
O3    Zn3   S    
C111  H11   S    
C129  C229  S    
C156  C189  S    
C31   C39   A    
C202  H57   S    
C132  C232  S    
C57   C136  S    
C84   C124  A    
C50   C106  A    
C80   C96   A    
C1    O1    A    
C189  H17   S    
O43   Zn12  S    
C138  O38   A    
O23   Zn7   S    
C218  H106  S    
C145  C153  A    
C28   C100  A    
C32   C40   A    
C52   C108  A    
C209  H78   S    
C5    O29   A    
C62   C70   A    
C137  O47   A    
C58   C66   A    
C143  C157  A    
C229  H138  S    
C51   C99   A    
C11   C173  A    
C90   O14   A    
O15   Zn4   S    
C14   C172  A    
C87   C184  S    
C88   C183  S    
C7    C75   S    
C86   O18   A    
C193  H29   S    
C117  C217  S    
O11   Zn8   S    
C203  H61   S    
C66   C214  S    
C85   O9    A    
C219  H109  S    
C88   O20   A    
C191  H23   S    
O30   Zn1   S    
C107  C115  A    
C216  H98   S    
O48   Zn9   S    
C26   C98   A    
C12   C175  A    
C41   C110  A    
C192  H27   S    
C204  H64   S    
C150  C152  A    
O35   Zn12  S    
C224  H123  S    
C43   C112  A    
O36   Zn11  S    
C144  C158  A    
O2    Zn2   S    
C226  H130  S    
C35   C43   A    
C152  C193  S    
C47   C55   A    
C214  H92   S    
C207  H73   S    
C61   C69   A    
C48   C56   A    
O50   C198  S    
C88   O12   A    
C124  C224  S    
C142  C160  A    
C12   C168  A    
C6    O6    A    
C225  H127  S    
C126  C226  S    
C118  C126  A    
C212  H86   S    
C92   O24   A    
O44   Zn11  S    
C187  O51   S    
O21   Zn5   S    
C196  H39   S    
C215  H95   S    
C232  H146  S    
C217  H101  S    
C85   O17   A    
C195  H36   S    
O14   Zn1   S    
C135  O35   A    
C223  H119  S    
C64   C72   A    
C91   O15   A    
C201  H53   S    
C189  H19   S    
C36   C44   A    
C180  C185  A    
O47   Zn10  S    
C89   O13   A    
C1    O25   A    
C34   C130  A    
C227  H132  S    
C230  H140  S    
C150  C195  S    
C47   C95   A    
O40   Zn9   S    
O4    Zn4   S    
C13   C148  A    
O45   Zn9   S    
C208  H74   S    
C122  C130  A    
