data_str_m2_o40_o41_f0_fof.sym.30
_audit_creation_date              2013-03-05T15:40:55-0500
_audit_creation_method            fapswitch 2.2
_symmetry_space_group_name_H-M    P1
_symmetry_Int_Tables_number       1
_space_group_crystal_system       triclinic
_cell_length_a                    27.982829
_cell_length_b                    18.693667
_cell_length_c                    16.719279
_cell_angle_alpha                 89.934811
_cell_angle_beta                  63.053404
_cell_angle_gamma                 89.891219
_cell_volume                      7796.32189469

loop_
_atom_site_label
_atom_site_type_symbol
_atom_site_description
_atom_site_fract_x
_atom_site_fract_y
_atom_site_fract_z
_atom_type_partial_charge
O1    O     O_R   0.255040 0.869590 0.478480 -0.568767
O2    O     O_R   0.744960 0.130410 0.521520 -0.575178
O3    O     O_R   0.744960 0.869590 0.521520 -0.570732
O4    O     O_R   0.255040 0.130410 0.478480 -0.569605
O5    O     O_R   0.755040 0.369590 0.478480 -0.574734
O6    O     O_R   0.244960 0.630410 0.521520 -0.568829
O7    O     O_R   0.244960 0.369590 0.521520 -0.568377
O8    O     O_R   0.755040 0.630410 0.478480 -0.576035
O9    O     O_R   0.182050 0.796550 0.624440 -0.587838
O10   O     O_R   0.817950 0.203450 0.375560 -0.594669
O11   O     O_R   0.817950 0.796550 0.375560 -0.588638
O12   O     O_R   0.182050 0.203450 0.624440 -0.589143
O13   O     O_R   0.682050 0.296550 0.624440 -0.578932
O14   O     O_R   0.317950 0.703450 0.375560 -0.589536
O15   O     O_R   0.317950 0.296550 0.375560 -0.588110
O16   O     O_R   0.682050 0.703450 0.624440 -0.589738
Cu1   Cu    Cu3+1 0.209920 0.785290 0.495070 0.996050
Cu2   Cu    Cu3+1 0.790080 0.214710 0.504930 0.973890
Cu3   Cu    Cu3+1 0.790080 0.785290 0.504930 0.980665
Cu4   Cu    Cu3+1 0.209920 0.214710 0.495070 0.973716
Cu5   Cu    Cu3+1 0.709920 0.285290 0.495070 0.942951
Cu6   Cu    Cu3+1 0.290080 0.714710 0.504930 0.972556
Cu7   Cu    Cu3+1 0.290080 0.285290 0.504930 0.993843
Cu8   Cu    Cu3+1 0.709920 0.714710 0.495070 0.971916
C1    C     C_R   0.290570 0.720333 0.332199 0.791208
C2    C     C_R   0.703864 0.268829 0.671887 0.796559
C3    C     C_R   0.708255 0.721891 0.668491 0.791941
C4    C     C_R   0.296929 0.267415 0.328132 0.774663
C5    C     C_R   0.796915 0.232812 0.327925 0.842033
C6    C     C_R   0.203028 0.767280 0.671805 0.778106
C7    C     C_R   0.209467 0.220256 0.667724 0.790328
C8    C     C_R   0.796675 0.767659 0.328338 0.780818
O17   O     O_R   0.250530 0.763330 0.367210 -0.566376
O18   O     O_R   0.749470 0.236670 0.632790 -0.577147
O19   O     O_R   0.749470 0.763330 0.632790 -0.571151
O20   O     O_R   0.250530 0.236670 0.367210 -0.573359
O21   O     O_R   0.750530 0.263330 0.367210 -0.603249
O22   O     O_R   0.249470 0.736670 0.632790 -0.574612
O23   O     O_R   0.249470 0.263330 0.632790 -0.572561
O24   O     O_R   0.750530 0.736670 0.367210 -0.578619
O25   O     O_R   0.177260 0.690030 0.513710 -0.585280
O26   O     O_R   0.822740 0.309970 0.486290 -0.605124
O27   O     O_R   0.822740 0.690030 0.486290 -0.583987
O28   O     O_R   0.177260 0.309970 0.513710 -0.595970
O29   O     O_R   0.677260 0.190030 0.513710 -0.601929
O30   O     O_R   0.322740 0.809970 0.486290 -0.599265
O31   O     O_R   0.322740 0.190030 0.486290 -0.580640
O32   O     O_R   0.677260 0.809970 0.513710 -0.593263
C9    C     C_R   0.196340 0.631763 0.528348 0.749569
C10   C     C_R   0.803401 0.368337 0.472548 0.862400
C11   C     C_R   0.803760 0.631836 0.471156 0.756944
C12   C     C_R   0.196541 0.368295 0.527618 0.821555
C13   C     C_R   0.700595 0.131100 0.513819 0.806463
C14   C     C_R   0.303160 0.868325 0.473041 0.824841
C15   C     C_R   0.303940 0.131951 0.470096 0.747955
C16   C     C_R   0.696987 0.868566 0.525779 0.821002
H1    H     H_    0.528213 0.759570 0.543454 0.140852
H2    H     H_    0.492703 0.236955 0.383333 0.140802
H3    H     H_    0.457391 0.756245 0.495712 0.141237
H4    H     H_    0.577492 0.234783 0.393301 0.138856
H5    H     H_    0.034784 0.254766 0.525943 0.140075
H6    H     H_    0.966144 0.744792 0.470645 0.142939
H7    H     H_    0.964881 0.254579 0.476104 0.140987
H8    H     H_    0.033414 0.744937 0.526422 0.155139
C17   C     C_R   0.040362 0.629463 0.526991 0.107075
C18   C     C_R   0.959080 0.370094 0.473321 0.091134
C19   C     C_R   0.960340 0.629302 0.468782 0.122258
C20   C     C_R   0.041120 0.370279 0.526286 0.093534
C21   C     C_R   0.569594 0.124587 0.438018 0.094586
C22   C     C_R   0.457861 0.870714 0.474442 0.091877
C23   C     C_R   0.472945 0.126369 0.423181 0.117191
C24   C     C_R   0.541753 0.873635 0.522124 0.097331
C25   C     C_R   0.019091 0.694222 0.514453 -0.139836
C26   C     C_R   0.980163 0.305288 0.485956 -0.189925
C27   C     C_R   0.981032 0.694158 0.481905 -0.150005
C28   C     C_R   0.019766 0.305398 0.514952 -0.191599
C29   C     C_R   0.553384 0.186662 0.409232 -0.196743
C30   C     C_R   0.475812 0.807020 0.496451 -0.193524
C31   C     C_R   0.505010 0.187901 0.403339 -0.168575
C32   C     C_R   0.515981 0.808946 0.523972 -0.190787
C33   C     C_R   0.979478 0.564539 0.485505 0.021250
C34   C     C_R   0.021509 0.435126 0.510859 0.034484
C35   C     C_R   0.021386 0.564620 0.510567 0.014720
C36   C     C_R   0.979026 0.435049 0.487306 0.034804
C37   C     C_R   0.490517 0.063254 0.447458 0.028244
C38   C     C_R   0.525952 0.936688 0.494848 0.030381
C39   C     C_R   0.537971 0.062916 0.457781 0.034472
C40   C     C_R   0.481582 0.935858 0.476573 0.034288
C41   C     C_R   0.461956 0.999668 0.457667 -0.047100
C42   C     C_R   0.554540 0.000226 0.485227 -0.045911
C43   C     C_R   0.957310 0.499773 0.475810 -0.043235
C44   C     C_R   0.043396 0.499923 0.521306 -0.044927
C45   C     C_R   0.388175 0.933793 0.451958 0.047896
C46   C     C_R   0.630865 0.063666 0.485265 0.046195
C47   C     C_R   0.617043 0.936572 0.526720 0.050279
C48   C     C_R   0.390867 0.065046 0.440918 0.042416
C49   C     C_R   0.888186 0.434065 0.454367 0.042452
C50   C     C_R   0.111579 0.565708 0.545556 0.028118
C51   C     C_R   0.112000 0.434309 0.544716 0.050324
C52   C     C_R   0.888885 0.565467 0.451798 0.046935
C53   C     C_R   0.335819 0.934319 0.456855 -0.119215
C54   C     C_R   0.674000 0.064485 0.508881 -0.109778
C55   C     C_R   0.666833 0.935634 0.531372 -0.117125
C56   C     C_R   0.336921 0.065426 0.452354 -0.121219
C57   C     C_R   0.836354 0.434405 0.456588 -0.084622
C58   C     C_R   0.163406 0.565604 0.543697 -0.120444
C59   C     C_R   0.163661 0.434495 0.543065 -0.120371
C60   C     C_R   0.836767 0.565539 0.455037 -0.123760
C61   C     C_R   0.311330 0.999969 0.457631 -0.252772
C62   C     C_R   0.692222 0.000339 0.528298 -0.269454
C63   C     C_R   0.812253 0.500033 0.455903 -0.242266
C64   C     C_R   0.187748 0.500029 0.543610 -0.253332
H9    H     H_    0.270542 0.000166 0.466334 0.207276
H10   H     H_    0.727799 0.000464 0.538505 0.200071
H11   H     H_    0.772371 0.500136 0.460505 0.198764
H12   H     H_    0.227483 0.500006 0.539620 0.207974
C65   C     C_R   0.413485 0.999589 0.450175 0.061873
C66   C     C_R   0.600653 0.000329 0.499804 0.068673
C67   C     C_R   0.911489 0.499769 0.460068 0.057723
C68   C     C_R   0.089001 0.499997 0.537662 0.062461
C69   C     C_R   0.583870 0.875584 0.544914 -0.230495
C70   C     C_R   0.423660 0.126979 0.419619 -0.172840
C71   C     C_R   0.416357 0.870108 0.450661 -0.233431
C72   C     C_R   0.617060 0.123210 0.446635 -0.233446
C73   C     C_R   0.082590 0.370969 0.550809 -0.230762
C74   C     C_R   0.919010 0.628518 0.443528 -0.162731
C75   C     C_R   0.917478 0.370616 0.449106 -0.223711
C76   C     C_R   0.081580 0.628826 0.552545 -0.179636
H13   H     H_    0.589247 0.828991 0.578048 0.171872
H14   H     H_    0.412495 0.175622 0.397462 0.164478
H15   H     H_    0.408499 0.818958 0.430001 0.179465
H16   H     H_    0.643283 0.168477 0.419407 0.174667
H17   H     H_    0.090035 0.321300 0.575817 0.175805
H18   H     H_    0.910822 0.678224 0.419480 0.167081
H19   H     H_    0.909849 0.320690 0.425100 0.179913
H20   H     H_    0.089382 0.678614 0.576709 0.179981
C77   C     C_R   0.197726 0.726580 0.969762 0.026193
C78   C     C_R   0.792488 0.257709 0.035299 0.027540
C79   C     C_R   0.792767 0.741527 0.036557 0.029013
C80   C     C_R   0.244636 0.186943 0.934779 0.028378
C81   C     C_R   0.731291 0.288263 0.943614 0.021312
C82   C     C_R   0.255460 0.686930 0.064772 0.027492
C83   C     C_R   0.302331 0.226990 0.029592 0.026752
C84   C     C_R   0.731994 0.708792 0.945136 0.030294
C85   C     C_R   0.240840 0.677922 0.930606 -0.001744
C86   C     C_R   0.752866 0.311519 0.068931 0.044188
C87   C     C_R   0.743595 0.704886 0.081198 -0.004072
C88   C     C_R   0.293931 0.223261 0.889600 -0.000858
C89   C     C_R   0.770293 0.233974 0.912068 -0.006364
C90   C     C_R   0.206545 0.724425 0.109129 -0.000239
C91   C     C_R   0.259194 0.178671 0.069095 -0.001427
C92   C     C_R   0.785443 0.733009 0.896849 -0.001089
C93   C     C_R   0.271170 0.660204 0.977136 0.065696
C94   C     C_R   0.724730 0.330457 0.018799 0.061325
C95   C     C_R   0.710410 0.696516 0.038308 0.060144
C96   C     C_R   0.321683 0.246332 0.938228 0.064281
C97   C     C_R   0.804742 0.225024 0.952047 0.059295
C98   C     C_R   0.178475 0.746597 0.060761 0.065773
C99   C     C_R   0.228648 0.161317 0.023005 0.066331
C100  C     C_R   0.814009 0.755925 0.943930 0.062948
C101  C     C_R   0.129692 0.802880 0.957271 0.072683
C102  C     C_R   0.864371 0.188366 0.044588 0.069536
C103  C     C_R   0.866767 0.807039 0.043973 0.074543
C104  C     C_R   0.163691 0.135659 0.933513 0.074378
C105  C     C_R   0.661609 0.357224 0.927854 0.066243
C106  C     C_R   0.335834 0.634523 0.067249 0.073118
C107  C     C_R   0.370082 0.303544 0.042150 0.071516
C108  C     C_R   0.647110 0.670748 0.947320 0.074186
C109  C     C_R   0.111505 0.840253 0.901764 -0.119085
C110  C     C_R   0.886738 0.157465 0.098319 -0.124103
C111  C     C_R   0.887655 0.840870 0.098193 -0.124768
C112  C     C_R   0.129248 0.129760 0.890698 -0.115037
C113  C     C_R   0.626041 0.364667 0.888972 -0.119210
C114  C     C_R   0.370424 0.629042 0.109757 -0.116265
C115  C     C_R   0.388356 0.340554 0.097889 -0.120765
C116  C     C_R   0.618585 0.649637 0.898434 -0.125555
C117  C     C_R   0.135397 0.825030 0.809821 -0.255978
C118  C     C_R   0.865062 0.176151 0.189164 -0.279180
C119  C     C_R   0.865212 0.823537 0.189570 -0.255270
C120  C     C_R   0.145216 0.160041 0.806137 -0.266063
C121  C     C_R   0.638078 0.330260 0.807994 -0.255964
C122  C     C_R   0.354589 0.659602 0.194079 -0.266700
C123  C     C_R   0.364477 0.325197 0.189854 -0.254990
C124  C     C_R   0.639135 0.668750 0.808283 -0.258333
C125  C     C_R   0.175097 0.772358 0.771567 -0.134129
C126  C     C_R   0.823878 0.226847 0.227788 -0.081846
C127  C     C_R   0.823291 0.773956 0.228909 -0.132132
C128  C     C_R   0.195741 0.190606 0.758395 -0.125329
C129  C     C_R   0.680942 0.282535 0.770191 -0.146840
C130  C     C_R   0.304221 0.690777 0.241542 -0.125375
C131  C     C_R   0.324798 0.272684 0.228165 -0.134278
C132  C     C_R   0.690767 0.696631 0.761565 -0.129388
C133  C     C_R   0.190759 0.731817 0.828324 -0.038949
C134  C     C_R   0.805504 0.263380 0.171363 0.051297
C135  C     C_R   0.803077 0.739414 0.174379 -0.044002
C136  C     C_R   0.231658 0.192385 0.798405 -0.040125
C137  C     C_R   0.706179 0.259174 0.823394 -0.031037
C138  C     C_R   0.268478 0.693318 0.201161 -0.040079
C139  C     C_R   0.309213 0.232346 0.171256 -0.037654
C140  C     C_R   0.724446 0.699734 0.804910 -0.041083
C141  C     C_R   0.173015 0.754271 0.918115 0.077934
C142  C     C_R   0.820532 0.236133 0.084254 0.046541
C143  C     C_R   0.820797 0.763100 0.085197 0.076518
C144  C     C_R   0.212525 0.173434 0.889733 0.072348
C145  C     C_R   0.699634 0.301418 0.898370 0.077709
C146  C     C_R   0.287401 0.673321 0.110205 0.071551
C147  C     C_R   0.326925 0.254847 0.081321 0.077606
C148  C     C_R   0.700845 0.694201 0.899317 0.073999
C149  C     C_R   0.105737 0.810873 0.051096 -0.197256
C150  C     C_R   0.884243 0.174752 0.951781 -0.174079
C151  C     C_R   0.890045 0.814320 0.949840 -0.188379
C152  C     C_R   0.153297 0.102641 0.016219 -0.186531
C153  C     C_R   0.661375 0.404641 0.993518 -0.186850
C154  C     C_R   0.345714 0.600044 0.985734 -0.187476
C155  C     C_R   0.393750 0.311844 0.948162 -0.195299
C156  C     C_R   0.624608 0.668174 0.041901 -0.185792
C157  C     C_R   0.130832 0.786774 0.100740 -0.211191
C158  C     C_R   0.853217 0.188062 0.908374 -0.215915
C159  C     C_R   0.863828 0.790803 0.901305 -0.209231
C160  C     C_R   0.183146 0.117761 0.061288 -0.217166
C161  C     C_R   0.691006 0.390627 0.039600 -0.206765
C162  C     C_R   0.316024 0.615105 0.940205 -0.216269
C163  C     C_R   0.368934 0.286962 0.898307 -0.210198
C164  C     C_R   0.656011 0.678221 0.086058 -0.222799
C165  C     C_R   0.221950 0.668373 0.801241 -0.012533
C166  C     C_R   0.773403 0.326312 0.196374 -0.016563
C167  C     C_R   0.765871 0.681799 0.203822 0.000212
C168  C     C_R   0.287291 0.206410 0.750167 -0.013103
C169  C     C_R   0.737334 0.195849 0.805701 -0.006678
C170  C     C_R   0.213306 0.710249 0.248443 -0.006056
C171  C     C_R   0.278220 0.168882 0.198295 -0.012788
C172  C     C_R   0.781043 0.704677 0.758235 -0.007762
C173  C     C_R   0.249645 0.645655 0.848779 -0.191104
C174  C     C_R   0.745146 0.346612 0.148715 -0.290311
C175  C     C_R   0.732102 0.671726 0.163311 -0.196942
C176  C     C_R   0.315761 0.229450 0.795845 -0.193551
C177  C     C_R   0.771370 0.186595 0.845834 -0.193130
C178  C     C_R   0.185227 0.732964 0.202246 -0.200392
C179  C     C_R   0.250538 0.146274 0.150831 -0.191319
C180  C     C_R   0.809871 0.727799 0.803124 -0.191273
H21   H     H_    0.066823 0.834388 0.089438 0.177676
H22   H     H_    0.923963 0.155341 0.909396 0.178847
H23   H     H_    0.929550 0.835814 0.910594 0.175691
H24   H     H_    0.123846 0.062066 0.048774 0.190179
H25   H     H_    0.639755 0.454695 0.008669 0.176018
H26   H     H_    0.374577 0.558273 0.955054 0.189083
H27   H     H_    0.432336 0.335978 0.909666 0.181142
H28   H     H_    0.582248 0.660531 0.084011 0.174469
H29   H     H_    0.111743 0.801633 0.170528 0.140714
H30   H     H_    0.869048 0.172565 0.838632 0.146864
H31   H     H_    0.882870 0.802782 0.830458 0.143980
H32   H     H_    0.169167 0.094119 0.126891 0.143580
H33   H     H_    0.687756 0.429324 0.089540 0.144430
H34   H     H_    0.329506 0.589989 0.875579 0.143072
H35   H     H_    0.387669 0.301579 0.828356 0.143485
H36   H     H_    0.636558 0.674603 0.158548 0.146874
H37   H     H_    0.274742 0.598985 0.824148 0.178129
H38   H     H_    0.718602 0.391906 0.174148 0.135955
H39   H     H_    0.700821 0.631750 0.190352 0.174857
H40   H     H_    0.357387 0.242955 0.756028 0.176918
H41   H     H_    0.795643 0.138639 0.830434 0.184277
H42   H     H_    0.143955 0.748116 0.242032 0.173596
H43   H     H_    0.225698 0.099420 0.175193 0.178430
H44   H     H_    0.852796 0.733049 0.764908 0.177090
O33   O     O_R   0.051640 0.926880 0.885090 -0.589565
O34   O     O_R   0.948360 0.073120 0.114910 -0.577289
O35   O     O_R   0.948360 0.926880 0.114910 -0.587925
O36   O     O_R   0.051640 0.073120 0.885090 -0.586722
O37   O     O_R   0.551640 0.426880 0.885090 -0.589770
O38   O     O_R   0.448360 0.573120 0.114910 -0.585321
O39   O     O_R   0.448360 0.426880 0.114910 -0.580570
O40   O     O_R   0.551640 0.573120 0.885090 -0.578577
Cu9   Cu    Cu3+1 0.495240 0.500000 0.924150 0.927624
Cu10  Cu    Cu3+1 0.504760 0.500000 0.075850 0.933314
Cu11  Cu    Cu3+1 0.995240 0.000000 0.924150 0.935174
Cu12  Cu    Cu3+1 0.004760 0.000000 0.075850 0.928847
C181  C     C_R   0.928215 0.899742 0.064690 0.804771
C182  C     C_R   0.077331 0.091165 0.931078 0.820664
C183  C     C_R   0.071780 0.899888 0.935207 0.792617
C184  C     C_R   0.927710 0.099465 0.065024 0.830355
C185  C     C_R   0.428207 0.399941 0.064743 0.806973
C186  C     C_R   0.572710 0.598958 0.934848 0.805041
C187  C     C_R   0.577172 0.408843 0.930313 0.814543
C188  C     C_R   0.422499 0.590801 0.069087 0.819851
O41   O     O_R   0.940620 0.926560 0.986760 -0.591710
O42   O     O_R   0.059380 0.073440 0.013240 -0.602857
O43   O     O_R   0.059380 0.926560 0.013240 -0.606551
O44   O     O_R   0.940620 0.073440 0.986760 -0.594975
O45   O     O_R   0.440620 0.426560 0.986760 -0.607029
O46   O     O_R   0.559380 0.573440 0.013240 -0.606184
O47   O     O_R   0.559380 0.426560 0.013240 -0.592366
O48   O     O_R   0.440620 0.573440 0.986760 -0.602389
H45   H     H_    0.123912 0.856312 0.766691 0.188882
H46   H     H_    0.879286 0.148755 0.231426 0.189805
H47   H     H_    0.879391 0.851162 0.231641 0.188409
H48   H     H_    0.118238 0.158069 0.775830 0.183730
H49   H     H_    0.615011 0.342733 0.772346 0.188749
H50   H     H_    0.381582 0.657503 0.224360 0.184089
H51   H     H_    0.376008 0.356239 0.232991 0.188934
H52   H     H_    0.615356 0.659243 0.773146 0.187732
C189  C     C_2   0.218222 0.618418 0.735122 0.441410
H53   H     H_    0.186539 0.624999 0.715277 0.031910
O49   O     O_2   0.249824 0.568956 0.703090 -0.554366
C190  C     C_2   0.775851 0.379974 0.259738 0.423938
H54   H     H_    0.743219 0.417758 0.292675 0.093407
O50   O     O_2   0.815519 0.384998 0.272058 -0.565073
C191  C     C_2   0.769210 0.624055 0.262418 0.441361
H55   H     H_    0.802704 0.622498 0.278456 0.048874
O51   O     O_2   0.735168 0.577301 0.292450 -0.579502
C192  C     C_2   0.319000 0.176633 0.659449 0.456665
H56   H     H_    0.301544 0.135249 0.635671 0.037690
O52   O     O_2   0.365110 0.195678 0.612244 -0.552476
C193  C     C_2   0.728670 0.134141 0.757642 0.431549
H57   H     H_    0.694180 0.133244 0.744244 0.047890
O53   O     O_2   0.759520 0.083342 0.733258 -0.553462
C194  C     C_2   0.180444 0.685076 0.340550 0.451322
H58   H     H_    0.193653 0.639234 0.365025 0.039957
O54   O     O_2   0.138291 0.714789 0.388958 -0.567785
C195  C     C_2   0.282178 0.118801 0.264230 0.442611
H59   H     H_    0.313932 0.125279 0.283874 0.029513
O55   O     O_2   0.250687 0.069358 0.296337 -0.552745
C196  C     C_2   0.811677 0.670583 0.669864 0.445340
H60   H     H_    0.792380 0.631877 0.645841 0.035182
O56   O     O_2   0.859024 0.684160 0.624173 -0.565950

loop_
_geom_bond_atom_site_label_1
_geom_bond_atom_site_label_2
_geom_bond_distance
_ccdc_geom_bond_type
C196  O56   1.219400 D    
C86   C174  1.413043 A    
C155  H27   1.074707 S    
C138  C146  1.415428 A    
Cu2   Cu5   2.668880 S    
C59   C64   1.401396 A    
O38   Cu10  1.960963 S    
C23   C70   1.407158 A    
C179  H43   1.077550 S    
C136  C168  1.416283 A    
C189  H53   1.085065 S    
C167  C191  1.487923 S    
C103  C143  1.415503 A    
C157  H29   1.076676 S    
C77   C98   1.415169 A    
C110  C118  1.400827 A    
C96   C163  1.404787 A    
C1    C130  1.491625 S    
C80   C99   1.416531 A    
C38   C40   1.406767 A    
C81   C94   1.424264 A    
C100  C159  1.406557 A    
C171  C195  1.487247 S    
Cu6   O22   1.956603 S    
C133  C141  1.414756 A    
C5    C126  1.496649 S    
C6    O22   1.292896 A    
C116  C124  1.394337 A    
C139  C171  1.418233 A    
C154  C162  1.385914 A    
C33   C35   1.412866 A    
C137  C145  1.422038 A    
O40   Cu9   1.964104 S    
C89   C177  1.408366 A    
C108  C148  1.416086 A    
O3    Cu3   1.957162 S    
C109  C183  1.491482 S    
C36   C43   1.404508 A    
C136  C144  1.415004 A    
C110  C184  1.489336 S    
C111  C181  1.496762 S    
C49   C57   1.433966 A    
C83   C91   1.410457 A    
C140  C148  1.411876 A    
C158  H30   1.082556 S    
Cu9   O45   1.967546 S    
C51   C59   1.433347 A    
O25   C9    1.283340 A    
C29   C31   1.401209 A    
O40   C186  1.311312 A    
C192  O52   1.221749 D    
C106  C114  1.440622 A    
C165  C189  1.487345 S    
C150  H22   1.074435 S    
C38   C42   1.401142 A    
C45   C53   1.429850 A    
C102  C150  1.414213 A    
C3    O19   1.290308 A    
C194  H58   1.083287 S    
C156  C164  1.393364 A    
C86   C94   1.429717 A    
C13   C54   1.473365 S    
O12   Cu4   1.949801 S    
O13   Cu5   1.950013 S    
H2    C31   1.083448 S    
C34   C36   1.411611 A    
C160  H32   1.078007 S    
H6    C27   1.083559 S    
C169  C177  1.402010 A    
Cu11  O41   1.967546 S    
C91   C179  1.411253 A    
C164  H36   1.082501 S    
C115  C123  1.400588 A    
C129  C137  1.431068 A    
C174  H38   1.077784 S    
C45   C71   1.421485 A    
C16   C55   1.489078 S    
O2    C13   1.304901 A    
C50   C68   1.415767 A    
C9    C58   1.494667 S    
H7    C26   1.083659 S    
C135  C167  1.422979 A    
C156  H28   1.079429 S    
C50   C58   1.436435 A    
C60   C63   1.401595 A    
C121  H49   1.083529 S    
C149  C157  1.382439 A    
C133  C165  1.418644 A    
C93   C162  1.400774 A    
Cu3   O19   1.956487 S    
C78   C142  1.424300 A    
C134  C166  1.422128 A    
C104  C152  1.418414 A    
C97   C158  1.396601 A    
C82   C146  1.433395 A    
C118  C126  1.402140 A    
O5    Cu5   1.960513 S    
C40   C41   1.406555 A    
C188  O48   1.274714 A    
C99   C160  1.399282 A    
O37   C187  1.297656 A    
C122  C130  1.392868 A    
O38   C188  1.311813 A    
C105  C145  1.408937 A    
C183  O43   1.289047 A    
Cu12  O43   1.965158 S    
C134  C142  1.415329 A    
C195  O55   1.221550 D    
C135  C143  1.412239 A    
C14   C53   1.486521 S    
C21   C29   1.406597 A    
C107  C155  1.410198 A    
O27   C11   1.286132 A    
C114  C122  1.394604 A    
C23   C31   1.404103 A    
C193  H57   1.085324 S    
C117  C125  1.402141 A    
C26   C28   1.396434 A    
C102  C142  1.414870 A    
C55   C62   1.393009 A    
C52   C74   1.420106 A    
O10   Cu2   1.950013 S    
O7    C12   1.312109 A    
Cu2   O26   1.962203 S    
C30   C32   1.394778 A    
C193  O53   1.221489 D    
C18   C26   1.403559 A    
C72   H16   1.077253 S    
C116  C186  1.486973 S    
C186  O46   1.280890 A    
C82   C93   1.416597 A    
C10   C57   1.492458 S    
H8    C25   1.083527 S    
C104  C144  1.413409 A    
C62   H10   1.083635 S    
C101  C109  1.426018 A    
O28   C12   1.284715 A    
O16   C3    1.300005 A    
C190  O50   1.221114 D    
O29   C13   1.279965 A    
H1    C32   1.083693 S    
C111  C119  1.401248 A    
C45   C65   1.414009 A    
C180  H44   1.079542 S    
H3    C30   1.083720 S    
C109  C117  1.399944 A    
Cu4   O28   1.959696 S    
C2    C129  1.491059 S    
C47   C55   1.430283 A    
Cu5   O29   1.962203 S    
H5    C28   1.083655 S    
C161  H33   1.077527 S    
C52   C60   1.434679 A    
Cu7   O31   1.959696 S    
C177  H41   1.082140 S    
Cu8   O32   1.959696 S    
C6    C125  1.490138 S    
C48   C65   1.416768 A    
C149  H21   1.075219 S    
C132  C140  1.426896 A    
C181  O41   1.287925 A    
C15   C56   1.494881 S    
C91   C99   1.424167 A    
C49   C67   1.415112 A    
Cu4   Cu7   2.673272 S    
C52   C67   1.415445 A    
C153  H25   1.079451 S    
Cu10  O46   1.967546 S    
C74   H18   1.076742 S    
C153  C161  1.388310 A    
O9    C6    1.300075 A    
O26   C10   1.282972 A    
C105  C153  1.409506 A    
C41   C65   1.417536 A    
O11   C8    1.302941 A    
C19   C33   1.401112 A    
O12   C7    1.309823 A    
C43   C67   1.420949 A    
O13   C2    1.306602 A    
C104  C112  1.442018 A    
C19   C27   1.404187 A    
C3    C132  1.480888 S    
C4    C131  1.493314 S    
C64   H12   1.083288 S    
C87   C95   1.416100 A    
C107  C115  1.429446 A    
C108  C116  1.433231 A    
C8    C127  1.486545 S    
C126  C134  1.434407 A    
C113  C187  1.473137 S    
C137  C169  1.418441 A    
C20   C28   1.403543 A    
C88   C96   1.422820 A    
O1    Cu1   1.960513 S    
C166  C174  1.404758 A    
C20   C34   1.400794 A    
C108  C156  1.413111 A    
C44   C68   1.421152 A    
C24   C32   1.402300 A    
C124  H52   1.083688 S    
C46   C66   1.411589 A    
C47   C69   1.414687 A    
C77   C141  1.424975 A    
C78   C86   1.410441 A    
O7    Cu7   1.957162 S    
O8    Cu8   1.957164 S    
C81   C145  1.422488 A    
C172  C196  1.475196 S    
C20   C73   1.395059 A    
C170  C194  1.468027 S    
C1    O17   1.283469 A    
O39   Cu10  1.964103 S    
C117  H45   1.083333 S    
C85   C173  1.411383 A    
C24   C69   1.393814 A    
C166  C190  1.483817 S    
C122  H50   1.083916 S    
C119  H47   1.083239 S    
Cu11  Cu12  2.667627 S    
C151  C159  1.389811 A    
Cu12  O42   1.967546 S    
O11   Cu3   1.949801 S    
C42   C66   1.417554 A    
C77   C85   1.411687 A    
C75   H19   1.075637 S    
C76   H20   1.076431 S    
O39   C185  1.306084 A    
C119  C127  1.404001 A    
C53   C61   1.401664 A    
O6    Cu6   1.960511 S    
O36   C182  1.313114 A    
C34   C44   1.404670 A    
C194  O54   1.219923 D    
C120  C128  1.393480 A    
C121  C129  1.394353 A    
O33   Cu11  1.960966 S    
C83   C147  1.426418 A    
C12   C59   1.491884 S    
O34   Cu12  1.960963 S    
C124  C132  1.395830 A    
C103  C111  1.430481 A    
C21   C39   1.399758 A    
C112  C120  1.394819 A    
C50   C76   1.420617 A    
C196  H60   1.084033 S    
C57   C63   1.401395 A    
C113  C121  1.395712 A    
C159  H31   1.079317 S    
C120  H48   1.083905 S    
Cu1   O17   1.956601 S    
C169  C193  1.488225 S    
Cu11  O44   1.965155 S    
C123  H51   1.083313 S    
Cu3   O27   1.959696 S    
C189  O49   1.221700 D    
O35   Cu12  1.964103 S    
C191  H55   1.085759 S    
C17   C76   1.399857 A    
C151  H23   1.075969 S    
C19   C74   1.399539 A    
C37   C41   1.400085 A    
C21   C72   1.399612 A    
C187  O47   1.286343 A    
C101  C149  1.406975 A    
C123  C131  1.401748 A    
C184  O44   1.285221 A    
C102  C110  1.428115 A    
O30   C14   1.283139 A    
Cu6   O30   1.962203 S    
C79   C100  1.410488 A    
O4    C15   1.311174 A    
O5    C10   1.311474 A    
C54   C62   1.396456 A    
C114  C188  1.481887 S    
C130  C138  1.438831 A    
C192  H56   1.083170 S    
C90   C98   1.420008 A    
C71   H15   1.073470 S    
C69   H13   1.078010 S    
C24   C38   1.404399 A    
C152  C160  1.384596 A    
Cu1   Cu6   2.668880 S    
C48   C70   1.419940 A    
C165  C173  1.403172 A    
C82   C90   1.411520 A    
C94   C161  1.405734 A    
C80   C144  1.432846 A    
Cu3   Cu8   2.673272 S    
O37   Cu9   1.960966 S    
C79   C143  1.420985 A    
O10   C5    1.305633 A    
O14   Cu6   1.950013 S    
O15   C4    1.302434 A    
C98   C157  1.406414 A    
O14   C1    1.309262 A    
C195  H59   1.084928 S    
C33   C43   1.404048 A    
Cu5   O21   1.956601 S    
C4    O20   1.294664 A    
C175  H39   1.082625 S    
C39   C42   1.410114 A    
C5    O21   1.291133 A    
C106  C146  1.412055 A    
C89   C97   1.409651 A    
C112  C182  1.483527 S    
C84   C92   1.414595 A    
C84   C148  1.423904 A    
C87   C175  1.403979 A    
C92   C100  1.419301 A    
C22   C30   1.403462 A    
C49   C75   1.420409 A    
C22   C40   1.396238 A    
C80   C88   1.411489 A    
C81   C89   1.405190 A    
C51   C73   1.420242 A    
C58   C64   1.400934 A    
C35   C44   1.403990 A    
C79   C87   1.411084 A    
C101  C141  1.414862 A    
C131  C139  1.429358 A    
C56   C61   1.401301 A    
C17   C35   1.400726 A    
C105  C113  1.420655 A    
C17   C25   1.404800 A    
C18   C75   1.395115 A    
C171  C179  1.402676 A    
C51   C68   1.414703 A    
C23   C37   1.405761 A    
C22   C71   1.387698 A    
C2    O18   1.288119 A    
C11   C60   1.494146 S    
C90   C178  1.401278 A    
C7    C128  1.491322 S    
C118  H46   1.083195 S    
Cu9   O48   1.965155 S    
C168  C192  1.475792 S    
Cu10  O47   1.965158 S    
C61   H9    1.083231 S    
C85   C93   1.425467 A    
O15   Cu7   1.949801 S    
O16   Cu8   1.949801 S    
C95   C164  1.404091 A    
C37   C39   1.414527 A    
C47   C66   1.420257 A    
H4    C29   1.083577 S    
C103  C151  1.410854 A    
O33   C183  1.303946 A    
Cu4   O20   1.956486 S    
C173  H37   1.077167 S    
O34   C184  1.306470 A    
O35   C181  1.308107 A    
C88   C176  1.405578 A    
C107  C147  1.414929 A    
O1    C14   1.308001 A    
O3    C16   1.311867 A    
C92   C180  1.400562 A    
C139  C147  1.416838 A    
Cu9   Cu10  2.667627 S    
C176  H40   1.077787 S    
C154  H26   1.071553 S    
Cu2   O18   1.956603 S    
O8    C11   1.312711 A    
C106  C154  1.417428 A    
O9    Cu1   1.950013 S    
C190  H54   1.085672 S    
C170  C178  1.393644 A    
C25   C27   1.398442 A    
O31   C15   1.288699 A    
C73   H17   1.075960 S    
O32   C16   1.284147 A    
C127  C135  1.427663 A    
C182  O42   1.274111 A    
C125  C133  1.428613 A    
O2    Cu2   1.960511 S    
C155  C163  1.385658 A    
C138  C170  1.414652 A    
O4    Cu4   1.957164 S    
C167  C175  1.402903 A    
C150  C158  1.382830 A    
C84   C95   1.411066 A    
C48   C56   1.433092 A    
C191  O51   1.221512 D    
C152  H24   1.070357 S    
C162  H34   1.077629 S    
C78   C97   1.413114 A    
C83   C96   1.416736 A    
Cu7   O23   1.956487 S    
O36   Cu11  1.964104 S    
Cu8   O24   1.956486 S    
C7    O23   1.285444 A    
C8    O24   1.291018 A    
O6    C9    1.312943 A    
Cu1   O25   1.962203 S    
C168  C176  1.398913 A    
C178  H42   1.076785 S    
C18   C36   1.400759 A    
C163  H35   1.077700 S    
C140  C172  1.416351 A    
C128  C136  1.438132 A    
C172  C180  1.397006 A    
C63   H11   1.083326 S    
C115  C185  1.492092 S    
C70   H14   1.079240 S    
C46   C54   1.430066 A    
C185  O45   1.287223 A    
C46   C72   1.424157 A    
