data_str_m2_o38_o41_f0_fof.sym.30
_audit_creation_date              2012-10-26T17:11:24-0400
_audit_creation_method            fapswitch 2.2
_symmetry_space_group_name_H-M    P1
_symmetry_Int_Tables_number       1
_space_group_crystal_system       triclinic
_cell_length_a                    28.013643
_cell_length_b                    18.771081
_cell_length_c                    16.831119
_cell_angle_alpha                 90.225265
_cell_angle_beta                  62.246884
_cell_angle_gamma                 89.943965
_cell_volume                      7832.33215252

loop_
_atom_site_label
_atom_site_type_symbol
_atom_type_description
_atom_site_fract_x
_atom_site_fract_y
_atom_site_fract_z
_atom_type_partial_charge
C1    C     C_R   0.296124 0.730519 0.328794 0.542014
C2    C     C_R   0.587527 0.001282 0.545334 0.017883
C3    C     C_R   0.679312 0.738719 0.909852 0.017802
C4    C     C_R   0.928860 0.899753 0.064362 0.610219
C5    C     C_R   0.073131 0.097770 0.934184 0.550558
C6    C     C_R   0.069964 0.898773 0.935951 0.566456
C7    C     C_R   0.922829 0.090564 0.070096 0.581242
C8    C     C_R   0.429232 0.399488 0.064187 0.613890
C9    C     C_R   0.573064 0.598064 0.934273 0.550673
C10   C     C_R   0.569990 0.398829 0.935913 0.567142
C11   C     C_R   0.422914 0.590756 0.070093 0.585695
C12   C     C_R   0.040895 0.631593 0.531213 -0.060138
C13   C     C_R   0.899848 0.501858 0.498487 0.015599
C14   C     C_R   0.932616 0.375828 0.551820 -0.043022
C15   C     C_R   0.953005 0.630586 0.494356 -0.047855
C16   C     C_R   0.026668 0.374923 0.573775 -0.038142
C17   C     C_R   0.543050 0.129739 0.521968 -0.064109
C18   C     C_R   0.434507 0.872285 0.553093 -0.045275
C19   C     C_R   0.456325 0.126063 0.481593 -0.046568
C20   C     C_R   0.526696 0.875333 0.580297 -0.036294
C21   C     C_R   0.020890 0.697232 0.516317 0.232227
C22   C     C_R   0.950275 0.311520 0.574201 0.213428
C23   C     C_R   0.973742 0.696654 0.505337 0.251974
C24   C     C_R   0.086955 0.501167 0.546917 0.018067
C25   C     C_R   0.993356 0.313533 0.596233 0.206109
C26   C     C_R   0.526723 0.193552 0.496149 0.228274
C27   C     C_R   0.452148 0.809158 0.578146 0.213150
C28   C     C_R   0.480271 0.192543 0.482993 0.249636
C29   C     C_R   0.494053 0.813387 0.602945 0.206918
C30   C     C_R   0.972027 0.566386 0.511776 -0.025418
C31   C     C_R   0.009841 0.437918 0.548776 -0.021058
C32   C     C_R   0.017165 0.566605 0.527320 -0.026814
C33   C     C_R   0.962718 0.438446 0.538188 -0.020911
C34   C     C_R   0.473723 0.063137 0.505767 -0.026280
C35   C     C_R   0.576739 0.876460 0.581896 -0.082797
C36   C     C_R   0.510072 0.936895 0.551833 -0.022134
C37   C     C_R   0.518319 0.064654 0.522639 -0.029256
C38   C     C_R   0.463627 0.935830 0.539489 -0.021943
C39   C     C_R   0.446102 0.998634 0.514111 0.036263
C40   C     C_R   0.538271 0.000945 0.540907 0.034402
C41   C     C_R   0.945197 0.502069 0.515220 0.036392
C42   C     C_R   0.038139 0.501755 0.540555 0.035062
C43   C     C_R   0.370171 0.934266 0.514603 -0.051438
C44   C     C_R   0.613085 0.066295 0.542508 -0.055109
C45   C     C_R   0.610587 0.936932 0.554386 -0.057669
C46   C     C_R   0.414972 0.121130 0.456789 -0.064646
C47   C     C_R   0.381366 0.060818 0.477584 -0.052942
C48   C     C_R   0.870473 0.438617 0.508714 -0.057289
C49   C     C_R   0.111857 0.566138 0.547886 -0.057802
C50   C     C_R   0.109648 0.435898 0.554616 -0.054159
C51   C     C_R   0.883089 0.565538 0.474467 -0.047454
C52   C     C_R   0.323112 0.934690 0.502328 -0.031889
C53   C     C_R   0.667644 0.065337 0.528299 -0.047080
C54   C     C_R   0.666781 0.935848 0.532219 -0.042980
C55   C     C_R   0.328291 0.062775 0.483832 -0.049192
C56   C     C_R   0.829759 0.436522 0.479163 -0.046894
C57   C     C_R   0.386444 0.874076 0.546362 -0.070339
C58   C     C_R   0.162450 0.565877 0.549456 -0.019278
C59   C     C_R   0.161921 0.435176 0.550717 -0.062435
C60   C     C_R   0.836371 0.565407 0.460647 -0.027284
C61   C     C_R   0.297245 0.999703 0.509373 0.167101
C62   C     C_R   0.695927 0.000126 0.504512 0.164103
C63   C     C_R   0.817487 0.499810 0.446385 0.177281
C64   C     C_R   0.182922 0.500567 0.562719 0.191324
C65   C     C_3   0.258714 0.614883 0.836682 0.016346
C66   C     C_3   0.292593 0.577999 0.747303 -0.267174
C67   C     C_3   0.665210 0.134529 0.204546 0.031855
C68   C     C_R   0.583939 0.129346 0.547431 -0.071303
C69   C     C_3   0.620433 0.118431 0.297709 -0.342719
C70   C     C_3   0.787881 0.589393 0.033202 -0.025314
C71   C     C_3   0.827381 0.553029 0.058649 -0.345689
C72   C     C_3   0.313394 0.328843 0.785589 0.040756
C73   C     C_3   0.331240 0.387890 0.716472 -0.301921
C74   C     C_3   0.754240 0.119366 0.828683 0.021872
C75   C     C_3   0.780211 0.093590 0.731773 -0.309891
C76   C     C_3   0.163814 0.649766 0.212161 0.022242
C77   C     C_3   0.122695 0.639792 0.309632 -0.336020
C78   C     C_3   0.305857 0.106722 0.065222 -0.013221
C79   C     C_R   0.076756 0.374635 0.574798 -0.081793
C80   C     C_3   0.318826 0.079596 0.138146 -0.345145
C81   C     C_3   0.803530 0.857467 0.804585 0.056408
C82   C     C_3   0.817130 0.920992 0.742723 -0.324651
C83   C     C_3   0.278625 0.865733 0.778427 0.001355
C84   C     C_3   0.328227 0.870144 0.792956 -0.355838
C85   C     C_3   0.769955 0.344720 0.167325 0.007418
C86   C     C_3   0.726323 0.401835 0.202905 -0.290694
C87   C     C_3   0.699051 0.813574 0.261068 -0.002841
C88   C     C_3   0.641128 0.789159 0.317387 -0.296914
C89   C     C_3   0.148981 0.366164 0.875432 0.037220
C90   C     C_R   0.913771 0.627450 0.465145 -0.057015
C91   C     C_3   0.160974 0.440663 0.897945 -0.323750
C92   C     C_3   0.778618 0.364736 0.783892 -0.001308
C93   C     C_3   0.829204 0.366909 0.795781 -0.346455
C94   C     C_3   0.281125 0.850383 0.159941 -0.008317
C95   C     C_3   0.238879 0.907221 0.175684 -0.329285
C96   C     C_3   0.201090 0.314151 0.255527 0.004978
C97   C     C_3   0.142766 0.291322 0.311908 -0.294708
C98   C     C_3   0.657212 0.869235 0.823090 0.028683
C99   C     C_3   0.670295 0.946738 0.796398 -0.364238
C100  C     C_R   0.884127 0.379435 0.546256 -0.074462
C101  C     C_R   0.707086 0.276866 0.668971 0.527235
C102  C     C_R   0.083086 0.629513 0.553423 -0.068693
C103  C     C_R   0.210130 0.748220 0.961807 0.002360
C104  C     C_R   0.763271 0.200956 0.061051 0.008249
C105  C     C_R   0.779226 0.771968 0.043543 0.049348
C106  C     C_R   0.222681 0.241858 0.946712 0.018848
C107  C     C_R   0.708731 0.244260 0.962179 -0.004938
C108  C     C_R   0.264995 0.706392 0.060731 0.011999
C109  C     C_R   0.283987 0.264600 0.039981 0.041915
C110  C     C_R   0.716399 0.752763 0.951592 0.037735
C111  C     C_R   0.259538 0.709147 0.920813 0.285281
C112  C     C_R   0.704572 0.728610 0.670421 0.544059
C113  C     C_R   0.708761 0.222193 0.105304 0.290603
C114  C     C_R   0.757178 0.704981 0.043096 0.327056
C115  C     C_R   0.255829 0.303134 0.930321 0.260550
C116  C     C_R   0.758480 0.205629 0.920552 0.286327
C117  C     C_R   0.211118 0.730484 0.104892 0.290405
C118  C     C_R   0.258223 0.198768 0.047028 0.318755
C119  C     C_R   0.745954 0.816593 0.942444 0.274220
C120  C     C_R   0.289243 0.698761 0.967301 -0.108929
C121  C     C_R   0.686250 0.254591 0.055845 -0.114825
C122  C     C_R   0.725040 0.696561 0.999327 -0.104647
C123  C     C_R   0.293853 0.274391 0.330095 0.535314
C124  C     C_R   0.281405 0.316362 0.982880 -0.100585
C125  C     C_R   0.788033 0.195139 0.967298 -0.105491
C126  C     C_R   0.188513 0.761426 0.054705 -0.115134
C127  C     C_R   0.227759 0.188444 0.001383 -0.082379
C128  C     C_R   0.772643 0.827183 0.994300 -0.117458
C129  C     C_R   0.127213 0.800406 0.950902 0.188096
C130  C     C_R   0.834121 0.131638 0.082094 0.195220
C131  C     C_R   0.863886 0.813771 0.048027 0.178452
C132  C     C_R   0.138054 0.185325 0.951019 0.119123
C133  C     C_R   0.626596 0.299352 0.950618 0.190389
C134  C     C_R   0.795909 0.230209 0.328689 0.595063
C135  C     C_R   0.334665 0.634055 0.082108 0.196962
C136  C     C_R   0.366803 0.310155 0.047012 0.193603
C137  C     C_R   0.634041 0.692599 0.952488 0.128799
C138  C     C_R   0.110140 0.841283 0.898522 -0.015686
C139  C     C_R   0.873263 0.132726 0.113261 -0.019968
C140  C     C_R   0.886413 0.844619 0.100280 0.006509
C141  C     C_R   0.116666 0.151282 0.898146 -0.048217
C142  C     C_R   0.610294 0.341573 0.898227 -0.009894
C143  C     C_R   0.373704 0.633626 0.113388 -0.028383
C144  C     C_R   0.387652 0.343489 0.100057 0.010411
C145  C     C_R   0.206668 0.776034 0.669268 0.575002
C146  C     C_R   0.616418 0.652262 0.898285 -0.046351
C147  C     C_R   0.133949 0.828528 0.806744 -0.168290
C148  C     C_R   0.862806 0.170466 0.191024 -0.178243
C149  C     C_R   0.864028 0.828387 0.191311 -0.165752
C150  C     C_R   0.139871 0.165437 0.806410 -0.179355
C151  C     C_R   0.634688 0.330018 0.806176 -0.202784
C152  C     C_R   0.363183 0.670304 0.191863 -0.209532
C153  C     C_R   0.364481 0.328588 0.191597 -0.198009
C154  C     C_R   0.643060 0.661061 0.805348 -0.212136
C155  C     C_R   0.183278 0.793925 0.765003 -0.010667
C156  C     C_R   0.203201 0.231672 0.671353 0.581289
C157  C     C_R   0.816837 0.212254 0.232770 -0.019859
C158  C     C_R   0.815625 0.791271 0.234049 -0.007315
C159  C     C_R   0.178055 0.219065 0.768840 -0.026377
C160  C     C_R   0.683774 0.294960 0.764713 -0.035657
C161  C     C_R   0.318007 0.713602 0.232729 -0.031102
C162  C     C_R   0.316200 0.291193 0.233926 -0.043423
C163  C     C_R   0.679987 0.715784 0.767160 -0.030849
C164  C     C_R   0.211524 0.783864 0.814520 0.265138
C165  C     C_R   0.787872 0.229206 0.185196 0.239666
C166  C     C_R   0.786274 0.776539 0.186381 0.270328
C167  C     C_R   0.793995 0.773890 0.329949 0.589280
C168  C     C_R   0.192667 0.258827 0.824937 0.247271
C169  C     C_R   0.711477 0.283851 0.814930 0.256287
C170  C     C_R   0.290653 0.733209 0.183721 0.252310
C171  C     C_R   0.287878 0.275054 0.185165 0.249127
C172  C     C_R   0.692495 0.760279 0.821790 0.241999
C173  C     C_R   0.196126 0.631994 0.529547 0.546172
C174  C     C_R   0.801117 0.369106 0.480801 0.539999
C175  C     C_R   0.803699 0.631722 0.472314 0.551730
C176  C     C_R   0.195903 0.368309 0.529852 0.519875
C177  C     C_R   0.697950 0.131535 0.522228 0.552301
C178  C     C_R   0.399378 0.997804 0.501580 0.016598
C179  C     C_R   0.298415 0.868586 0.489624 0.543613
C180  C     C_R   0.301400 0.130804 0.480108 0.548395
C181  C     C_R   0.697248 0.868624 0.524605 0.544400
C182  C     C_R   0.182124 0.775879 0.909492 -0.009657
C183  C     C_R   0.794931 0.186501 0.110565 -0.013673
C184  C     C_R   0.811117 0.785224 0.092478 0.011505
C185  C     C_R   0.184674 0.228594 0.906929 -0.009632
C186  C     C_R   0.681445 0.274399 0.909727 -0.014799
C187  C     C_R   0.296566 0.690401 0.109933 -0.008197
C188  C     C_R   0.314140 0.281025 0.090778 -0.004245
Cu1   Cu    Cu3+1 0.209920 0.785290 0.495070 1.206973
Cu2   Cu    Cu3+1 0.504760 0.500000 0.075850 1.132549
Cu3   Cu    Cu3+1 0.995240 0.000000 0.924150 1.250087
Cu4   Cu    Cu3+1 0.004760 0.000000 0.075850 1.163484
Cu5   Cu    Cu3+1 0.790080 0.214710 0.504930 1.159747
Cu6   Cu    Cu3+1 0.790080 0.785290 0.504930 1.175966
Cu7   Cu    Cu3+1 0.209920 0.214710 0.495070 1.137854
Cu8   Cu    Cu3+1 0.709920 0.285290 0.495070 1.194832
Cu9   Cu    Cu3+1 0.290080 0.714710 0.504930 1.173670
Cu10  Cu    Cu3+1 0.290080 0.285290 0.504930 1.162306
Cu11  Cu    Cu3+1 0.709920 0.714710 0.495070 1.133229
Cu12  Cu    Cu3+1 0.495240 0.500000 0.924150 1.218166
H1    H     H_    0.589371 0.829551 0.603067 0.212865
H2    H     H_    0.829594 0.178102 0.930139 0.189562
H3    H     H_    0.126865 0.338053 0.940701 0.159652
H4    H     H_    0.120972 0.370244 0.845855 0.124023
H5    H     H_    0.184167 0.472228 0.836452 0.210913
H6    H     H_    0.122508 0.468978 0.940386 0.113647
H7    H     H_    0.184353 0.437257 0.935910 0.180041
H8    H     H_    0.745977 0.392674 0.843065 0.091915
H9    H     H_    0.785917 0.395064 0.722733 0.120481
H10   H     H_    0.862533 0.337858 0.740247 0.185690
H11   H     H_    0.841620 0.423023 0.796126 0.091912
H12   H     H_    0.821198 0.341673 0.860347 0.142464
H13   H     H_    0.791463 0.878195 0.991239 0.177877
H14   H     H_    0.302034 0.837898 0.086652 0.102933
H15   H     H_    0.311013 0.872067 0.179807 0.130144
H16   H     H_    0.220907 0.926774 0.246105 0.184152
H17   H     H_    0.257731 0.952366 0.129299 0.086876
H18   H     H_    0.206469 0.884959 0.162626 0.185779
H19   H     H_    0.204356 0.342956 0.195476 0.138960
H20   H     H_    0.211590 0.351221 0.296927 0.122070
H21   H     H_    0.138143 0.263319 0.373105 0.182918
H22   H     H_    0.115993 0.338885 0.332592 0.104494
H23   H     H_    0.130527 0.255058 0.272346 0.227643
H24   H     H_    0.208286 0.137595 0.008472 0.128533
H25   H     H_    0.632063 0.867215 0.897439 0.169534
H26   H     H_    0.633399 0.848436 0.790345 0.131300
H27   H     H_    0.695919 0.950753 0.722602 0.152814
H28   H     H_    0.632432 0.977159 0.815729 0.113252
H29   H     H_    0.691665 0.970144 0.831635 0.176030
H30   H     H_    0.650096 0.284850 0.092933 0.210658
H31   H     H_    0.330430 0.680287 0.930250 0.190033
H32   H     H_    0.301562 0.366938 0.975653 0.187251
H33   H     H_    0.707746 0.644879 0.000996 0.102129
H34   H     H_    0.115748 0.849158 0.767095 0.212197
H35   H     H_    0.888843 0.164096 0.222076 0.198392
H36   H     H_    0.883458 0.847057 0.230063 0.202046
H37   H     H_    0.410262 0.164484 0.419532 0.204501
H38   H     H_    0.126537 0.136518 0.764552 0.229453
H39   H     H_    0.617014 0.351610 0.766212 0.190663
H40   H     H_    0.388587 0.662277 0.223797 0.194305
H41   H     H_    0.383071 0.348685 0.231006 0.193270
H42   H     H_    0.633068 0.627524 0.762663 0.181864
H43   H     H_    0.417818 0.734360 0.771571 0.339783
H44   H     H_    0.453660 0.385618 0.506497 0.365391
H45   H     H_    0.450363 0.614033 0.556374 0.370521
H46   H     H_    0.589122 0.357775 0.371262 0.369246
H47   H     H_    0.917681 0.232519 0.764629 0.340907
H48   H     H_    0.359036 0.830596 0.576148 0.212339
H49   H     H_    0.944638 0.883538 0.558382 0.368297
H50   H     H_    0.946948 0.117146 0.546791 0.369944
H51   H     H_    0.066784 0.878766 0.432263 0.374178
H52   H     H_    0.237295 0.064444 0.685580 0.313463
H53   H     H_    0.749011 0.064921 0.323287 0.327127
H54   H     H_    0.850257 0.426698 0.274624 0.328433
H55   H     H_    0.171391 0.417838 0.706018 0.323389
H56   H     H_    0.216691 0.620784 0.846891 0.160833
H57   H     H_    0.258723 0.580271 0.890347 0.157716
H58   H     H_    0.334499 0.570623 0.736701 0.182710
H59   H     H_    0.590776 0.178854 0.572396 0.207132
H60   H     H_    0.275057 0.525210 0.746994 0.146064
H61   H     H_    0.293514 0.610551 0.691676 0.244229
H62   H     H_    0.701518 0.104197 0.195520 0.181018
H63   H     H_    0.651885 0.114946 0.155315 0.162943
H64   H     H_    0.634981 0.128083 0.347752 0.194809
H65   H     H_    0.584734 0.152299 0.312514 0.193957
H66   H     H_    0.608586 0.061582 0.301839 0.093530
H67   H     H_    0.810375 0.602741 0.960307 0.117429
H68   H     H_    0.755064 0.551481 0.043535 0.132891
H69   H     H_    0.807437 0.540941 0.131535 0.216884
H70   H     H_    0.088749 0.326849 0.595208 0.215461
H71   H     H_    0.842228 0.502611 0.020054 0.087527
H72   H     H_    0.862255 0.588602 0.043170 0.169118
H73   H     H_    0.305812 0.279921 0.755640 0.166123
H74   H     H_    0.347237 0.318200 0.801235 0.206511
H75   H     H_    0.340355 0.436518 0.744529 0.152593
H76   H     H_    0.368170 0.371390 0.655745 0.174040
H77   H     H_    0.299143 0.399527 0.697349 0.235720
H78   H     H_    0.710846 0.130466 0.850365 0.137267
H79   H     H_    0.757699 0.076338 0.871108 0.150991
H80   H     H_    0.823141 0.079505 0.708946 0.187943
H81   H     H_    0.910485 0.673060 0.429470 0.201856
H82   H     H_    0.758453 0.046780 0.724954 0.061014
H83   H     H_    0.778699 0.135878 0.687698 0.228700
H84   H     H_    0.199123 0.615307 0.198678 0.179311
H85   H     H_    0.145082 0.631573 0.169895 0.160533
H86   H     H_    0.141915 0.650196 0.353103 0.202606
H87   H     H_    0.088137 0.676626 0.327395 0.201063
H88   H     H_    0.107638 0.584128 0.320689 0.087751
H89   H     H_    0.341443 0.137575 0.017064 0.150453
H90   H     H_    0.300116 0.060566 0.029015 0.120936
H91   H     H_    0.283413 0.051939 0.191261 0.176088
H92   H     H_    0.855968 0.337034 0.577392 0.209330
H93   H     H_    0.353414 0.041933 0.108652 0.097996
H94   H     H_    0.329621 0.124985 0.169144 0.170117
H95   H     H_    0.803340 0.808654 0.766958 0.198969
H96   H     H_    0.836517 0.852020 0.823149 0.206269
H97   H     H_    0.816864 0.969685 0.780393 0.156158
H98   H     H_    0.857850 0.914253 0.685061 0.154693
H99   H     H_    0.787550 0.926031 0.716629 0.179343
H100  H     H_    0.065156 0.669784 0.132044 0.368014
H101  H     H_    0.764435 0.007269 0.000683 0.364925
H102  H     H_    0.889203 0.691468 0.917055 0.342095
H103  H     H_    0.089719 0.677184 0.582349 0.211864
H104  H     H_    0.124901 0.084216 0.075622 0.318756
H105  H     H_    0.564540 0.169733 0.132386 0.370706
H106  H     H_    0.258755 0.504534 0.020266 0.358387
H107  H     H_    0.415328 0.189754 0.880917 0.356047
H108  H     H_    0.624204 0.592344 0.076025 0.316475
H109  H     H_    0.245501 0.895717 0.834652 0.099162
H110  H     H_    0.287091 0.893080 0.714832 0.144948
H111  H     H_    0.361750 0.838617 0.741090 0.186665
H112  H     H_    0.341157 0.926481 0.789047 0.093781
H113  H     H_    0.318755 0.848776 0.860104 0.142007
H114  H     H_    0.152829 0.792899 0.090706 0.207934
H115  H     H_    0.782017 0.336092 0.094974 0.090266
H116  H     H_    0.805623 0.363979 0.173467 0.163591
H117  H     H_    0.715439 0.414846 0.273753 0.232382
H118  H     H_    0.740876 0.450657 0.161847 0.094968
H119  H     H_    0.689842 0.382569 0.199458 0.169957
H120  H     H_    0.701343 0.844464 0.203044 0.140089
H121  H     H_    0.709589 0.849170 0.303709 0.153352
H122  H     H_    0.637465 0.758881 0.376536 0.186206
H123  H     H_    0.613842 0.836159 0.341384 0.107213
H124  H     H_    0.628740 0.754578 0.276528 0.223635
O1    O     O_R   0.255040 0.869590 0.478480 -0.452558
O2    O     O_R   0.817950 0.203450 0.375560 -0.467973
O3    O     O_2   0.961397 0.789107 0.907061 -0.241201
O4    O     O_3   0.881508 0.734439 0.890951 -0.537636
O5    O     O_2   0.117159 0.257066 0.103754 -0.279429
O6    O     O_2   0.040751 0.202653 0.095470 -0.236527
O7    O     O_3   0.105990 0.120323 0.123093 -0.459738
O8    O     O_2   0.558101 0.310137 0.127679 -0.266933
O9    O     O_2   0.524985 0.250941 0.033717 -0.246207
O10   O     O_3   0.591914 0.181086 0.070298 -0.549227
O11   O     O_2   0.363216 0.555048 0.931614 -0.249239
O12   O     O_2   0.334796 0.491293 0.073084 -0.317237
O13   O     O_R   0.817950 0.796550 0.375560 -0.479898
O14   O     O_3   0.261205 0.551487 0.045185 -0.590459
O15   O     O_2   0.404827 0.363849 0.879894 -0.233872
O16   O     O_2   0.465971 0.288424 0.908998 -0.257860
O17   O     O_3   0.388835 0.227806 0.889407 -0.580988
O18   O     O_2   0.609262 0.764951 0.106035 -0.264199
O19   O     O_2   0.535719 0.703438 0.095913 -0.232028
O20   O     O_3   0.604149 0.627846 0.123704 -0.466996
O21   O     O_3   0.266793 0.793250 0.771691 -0.473765
O22   O     O_3   0.748978 0.282107 0.217666 -0.470220
O23   O     O_3   0.733363 0.753314 0.231045 -0.489802
O24   O     O_R   0.182050 0.203450 0.624440 -0.459024
O25   O     O_3   0.197566 0.331867 0.812887 -0.483898
O26   O     O_3   0.766759 0.293083 0.773069 -0.472045
O27   O     O_3   0.255282 0.790291 0.212524 -0.475566
O28   O     O_3   0.234642 0.253131 0.229391 -0.487803
O29   O     O_3   0.705659 0.830048 0.795231 -0.516990
O30   O     O_R   0.682050 0.296550 0.624440 -0.525679
O31   O     O_R   0.317950 0.703450 0.375560 -0.512537
O32   O     O_R   0.317950 0.296550 0.375560 -0.506676
O33   O     O_R   0.682050 0.703450 0.624440 -0.511438
O34   O     O_R   0.250530 0.763330 0.367210 -0.438614
O35   O     O_R   0.749470 0.236670 0.632790 -0.496497
O36   O     O_R   0.749470 0.763330 0.632790 -0.462918
O37   O     O_R   0.744960 0.130410 0.521520 -0.454933
O38   O     O_R   0.250530 0.236670 0.367210 -0.472448
O39   O     O_R   0.750530 0.263330 0.367210 -0.411853
O40   O     O_R   0.249470 0.736670 0.632790 -0.463798
O41   O     O_R   0.249470 0.263330 0.632790 -0.465415
O42   O     O_R   0.750530 0.736670 0.367210 -0.453017
O43   O     O_R   0.177260 0.690030 0.513710 -0.515112
O44   O     O_R   0.822740 0.309970 0.486290 -0.507027
O45   O     O_R   0.822740 0.690030 0.486290 -0.508592
O46   O     O_R   0.177260 0.309970 0.513710 -0.555245
O47   O     O_R   0.677260 0.190030 0.513710 -0.506332
O48   O     O_R   0.744960 0.869590 0.521520 -0.443984
O49   O     O_R   0.322740 0.809970 0.486290 -0.516043
O50   O     O_R   0.322740 0.190030 0.486290 -0.496166
O51   O     O_R   0.677260 0.809970 0.513710 -0.550534
O52   O     O_R   0.051640 0.926880 0.885090 -0.501555
O53   O     O_R   0.948360 0.073120 0.114910 -0.494553
O54   O     O_R   0.948360 0.926880 0.114910 -0.506410
O55   O     O_R   0.051640 0.073120 0.885090 -0.506589
O56   O     O_R   0.551640 0.426880 0.885090 -0.514450
O57   O     O_R   0.448360 0.573120 0.114910 -0.503699
O58   O     O_R   0.448360 0.426880 0.114910 -0.516433
O59   O     O_R   0.255040 0.130410 0.478480 -0.432005
O60   O     O_R   0.551640 0.573120 0.885090 -0.512279
O61   O     O_R   0.940620 0.926560 0.986760 -0.409618
O62   O     O_R   0.059380 0.073440 0.013240 -0.480880
O63   O     O_R   0.059380 0.926560 0.013240 -0.491369
O64   O     O_R   0.940620 0.073440 0.986760 -0.452463
O65   O     O_R   0.440620 0.426560 0.986760 -0.404930
O66   O     O_R   0.559380 0.573440 0.013240 -0.480755
O67   O     O_R   0.559380 0.426560 0.013240 -0.489011
O68   O     O_R   0.440620 0.573440 0.986760 -0.444156
O69   O     O_2   0.546016 0.696542 0.614218 -0.212725
O70   O     O_R   0.755040 0.369590 0.478480 -0.432832
O71   O     O_2   0.515188 0.780543 0.739706 -0.330894
O72   O     O_3   0.444129 0.699764 0.729024 -0.412270
O73   O     O_2   0.459140 0.291009 0.388238 -0.252514
O74   O     O_2   0.386747 0.264187 0.538420 -0.321411
O75   O     O_3   0.464541 0.342394 0.527678 -0.446078
O76   O     O_2   0.374371 0.710488 0.648499 -0.266507
O77   O     O_2   0.416928 0.725635 0.485584 -0.279845
O78   O     O_3   0.470622 0.658456 0.551340 -0.418017
O79   O     O_2   0.557108 0.315221 0.544729 -0.239611
O80   O     O_2   0.628292 0.247149 0.423240 -0.278507
O81   O     O_R   0.244960 0.630410 0.521520 -0.432966
O82   O     O_3   0.563346 0.317889 0.385309 -0.428631
O83   O     O_2   0.044990 0.195041 0.603817 -0.207636
O84   O     O_2   0.015371 0.277115 0.731075 -0.331933
O85   O     O_3   0.943406 0.198460 0.720138 -0.408159
O86   O     O_2   0.946680 0.806470 0.432380 -0.261986
O87   O     O_2   0.875418 0.758223 0.572093 -0.299339
O88   O     O_3   0.946894 0.836842 0.583653 -0.443676
O89   O     O_2   0.871863 0.213668 0.643029 -0.268767
O90   O     O_2   0.913688 0.231711 0.480615 -0.275278
O91   O     O_3   0.967534 0.160976 0.543099 -0.416952
O92   O     O_R   0.244960 0.369590 0.521520 -0.420795
O93   O     O_2   0.045067 0.811797 0.587008 -0.226630
O94   O     O_2   0.118551 0.761754 0.450595 -0.292876
O95   O     O_3   0.046864 0.834964 0.433121 -0.445579
O96   O     O_2   0.194481 0.010397 0.536238 -0.199188
O97   O     O_2   0.208922 0.938002 0.643669 -0.324721
O98   O     O_3   0.215164 0.073314 0.654741 -0.529015
O99   O     O_2   0.802803 0.000419 0.452663 -0.217949
O100  O     O_2   0.773838 0.933823 0.357390 -0.316079
O101  O     O_3   0.774564 0.070253 0.348367 -0.502425
O102  O     O_2   0.728831 0.496212 0.422517 -0.218867
O103  O     O_R   0.755040 0.630410 0.478480 -0.439896
O104  O     O_2   0.806640 0.560651 0.309790 -0.287025
O105  O     O_3   0.810416 0.423024 0.306571 -0.542011
O106  O     O_2   0.280798 0.505481 0.556672 -0.247715
O107  O     O_2   0.205505 0.563786 0.684893 -0.336554
O108  O     O_3   0.210489 0.426566 0.681980 -0.496636
O109  O     O_3   0.281188 0.682381 0.834649 -0.473498
O110  O     O_3   0.676056 0.208610 0.195436 -0.476294
O111  O     O_3   0.765481 0.649504 0.089470 -0.496925
O112  O     O_3   0.265814 0.350491 0.862310 -0.535891
O113  O     O_3   0.781416 0.181179 0.833127 -0.470092
O114  O     O_R   0.182050 0.796550 0.624440 -0.484797
O115  O     O_3   0.179218 0.722212 0.196302 -0.481790
O116  O     O_3   0.257652 0.146946 0.105617 -0.501029
O117  O     O_3   0.752383 0.868169 0.880442 -0.539336
O118  O     O_2   0.059696 0.812493 0.128355 -0.271000
O119  O     O_2   0.026104 0.750790 0.036603 -0.250369
O120  O     O_3   0.094404 0.683548 0.072452 -0.551062
O121  O     O_2   0.865881 0.053208 0.930305 -0.251956
O122  O     O_2   0.835063 0.988930 0.072064 -0.297694
O123  O     O_3   0.763260 0.048135 0.038948 -0.585901
O124  O     O_2   0.900965 0.869839 0.883026 -0.227327
S1    S     S_3+6 0.501215 0.746566 0.672144 0.048290
S2    S     S_3+6 0.763651 0.999158 0.414847 0.043342
S3    S     S_3+6 0.789356 0.496882 0.370532 0.028344
S4    S     S_3+6 0.221693 0.501118 0.621728 -0.006144
S5    S     S_3+6 0.074921 0.762513 0.050156 0.008057
S6    S     S_3+6 0.825871 0.053412 0.028448 -0.010033
S7    S     S_3+6 0.903575 0.802962 0.929571 0.035443
S8    S     S_3+6 0.099332 0.193036 0.070621 0.031904
S9    S     S_3+6 0.573474 0.261045 0.048605 0.009048
S10   S     S_3+6 0.324765 0.555844 0.030477 -0.017360
S11   S     S_3+6 0.408221 0.298720 0.928692 0.011911
S12   S     S_3+6 0.446555 0.273649 0.483123 0.038162
S13   S     S_3+6 0.594484 0.698835 0.071840 0.041898
S14   S     S_3+6 0.426755 0.724680 0.566107 0.040605
S15   S     S_3+6 0.570249 0.269698 0.463430 0.055559
S16   S     S_3+6 0.000651 0.244996 0.663420 0.049915
S17   S     S_3+6 0.934424 0.775804 0.522270 0.048262
S18   S     S_3+6 0.924050 0.228273 0.560476 0.041567
S19   S     S_3+6 0.059187 0.777539 0.497879 0.048099
S20   S     S_3+6 0.226897 0.003351 0.586145 0.035260

loop_
_geom_bond_atom_site_label_1
_geom_bond_atom_site_label_2
_ccdc_geom_bond_type
C119  O117  S    
C31   C42   A    
C88   H122  S    
C55   C180  S    
C108  C120  A    
O10   S9    S    
Cu11  O51   S    
O78   S14   S    
C98   O29   S    
C50   C79   A    
C39   C178  A    
C14   C33   A    
C173  O43   A    
C19   C46   A    
C16   C31   A    
O93   S19   D    
O122  S6    D    
O91   S18   S    
O119  S5    D    
Cu4   O54   S    
C50   C59   A    
O82   S15   S    
O86   S17   D    
C52   C61   A    
C77   H86   S    
C69   H65   S    
C72   O112  S    
C24   C42   A    
C120  H31   S    
O124  S7    D    
C103  C126  A    
C123  O32   A    
C13   C51   A    
C44   C53   A    
C162  C171  A    
C87   H120  S    
C170  C187  A    
C93   H11   S    
O123  S6    S    
O83   S16   D    
C147  C155  A    
C117  C126  A    
C99   H28   S    
C174  O70   A    
C168  O25   S    
Cu7   Cu10  S    
C119  C128  A    
O75   S12   S    
O100  S2    D    
C58   C64   A    
H104  O7    S    
H54   O105  S    
C65   O109  S    
C165  O22   S    
C154  H42   S    
C64   S4    S    
C13   C41   A    
O77   S14   D    
Cu4   O62   S    
C158  C167  S    
C78   H90   S    
C89   O25   S    
C94   O27   S    
C48   C100  A    
O69   S1    D    
C125  H2    S    
C94   H14   S    
C149  H36   S    
C150  C159  A    
Cu3   Cu4   S    
C165  C183  A    
C137  C146  A    
C166  C184  A    
C49   C102  A    
C101  O30   A    
C86   H117  S    
C73   H77   S    
C96   H20   S    
C106  C127  A    
C136  S11   S    
C97   H23   S    
C56   C174  S    
C142  C151  A    
C65   H57   S    
C131  C184  A    
C154  C163  A    
C107  C186  S    
C36   C40   A    
C71   H69   S    
Cu9   O81   S    
Cu2   O66   S    
O108  S4    S    
C70   H68   S    
C163  C172  A    
C124  H32   S    
O16   S11   D    
C114  O111  S    
O99   S2    D    
C170  O27   S    
C35   C45   A    
C126  H114  S    
C91   H6    S    
C87   H121  S    
C15   C30   A    
Cu1   Cu9   S    
C16   C25   A    
C76   H84   S    
C115  O112  S    
C72   C73   S    
C53   C177  S    
C67   H63   S    
C82   H98   S    
C14   C100  A    
C169  O26   S    
C106  C115  A    
C9    O66   A    
C171  O28   S    
C18   C38   A    
C100  H92   S    
O120  S5    S    
C177  O47   A    
C113  O110  S    
C105  C184  S    
O17   S11   S    
C28   S12   S    
C2    C40   A    
C104  C183  S    
C176  O46   A    
C98   C99   S    
O104  S3    D    
C11   C143  S    
O121  S6    D    
O90   S18   D    
C131  S7    S    
C43   C178  A    
C153  H41   S    
C27   C29   A    
C48   C56   A    
C85   H116  S    
C85   C86   S    
C133  C142  A    
Cu10  O50   S    
Cu7   O24   S    
C37   C40   A    
C66   H60   S    
C130  C183  A    
C51   C90   A    
C38   C39   A    
C136  C144  A    
C63   S3    S    
C43   C52   A    
C3    C110  S    
C9    C146  S    
H105  O10   S    
O19   S13   D    
C179  O1    A    
C95   H17   S    
C8    O65   A    
C20   C35   A    
Cu6   Cu11  S    
C101  C160  S    
C2    C44   A    
C6    O63   A    
C22   C25   A    
O105  S3    S    
C117  O115  S    
C30   C41   A    
C4    O61   A    
C131  C140  A    
Cu6   O45   S    
C118  O116  S    
C89   C91   S    
C66   H61   S    
C149  C158  A    
H102  O4    S    
C152  C161  A    
C27   S14   S    
C135  C143  A    
O89   S18   D    
Cu3   O64   S    
C136  C188  A    
C95   H16   S    
C77   H87   S    
C135  C187  A    
C99   H29   S    
C141  C150  A    
C2    C45   A    
C24   C50   A    
C139  C148  A    
Cu5   O2    S    
Cu11  O42   S    
C59   C176  S    
C157  C165  A    
O14   S10   S    
O95   S19   S    
C71   H72   S    
C130  S6    S    
Cu1   O43   S    
O85   S16   S    
C83   C84   S    
C85   O22   S    
Cu5   Cu8   S    
C1    O31   A    
Cu11  O33   S    
C54   C181  S    
C137  S13   S    
O79   S15   D    
C19   C28   A    
C88   H123  S    
Cu12  O65   S    
C127  H24   S    
H100  O120  S    
Cu5   O37   S    
O6    S8    D    
C10   O56   A    
C116  C125  A    
C118  C127  A    
H43   O72   S    
C175  O45   A    
C132  C141  A    
C74   H78   S    
C11   O57   A    
O73   S12   D    
C108  C117  A    
C66   H58   S    
C110  C119  A    
C91   H7    S    
Cu5   O44   S    
H49   O88   S    
Cu8   O70   S    
C75   H80   S    
C148  H35   S    
C14   C22   A    
C52   C179  S    
C101  O35   A    
Cu9   O31   S    
C81   O117  S    
C135  S10   S    
C148  C157  A    
C133  S9    S    
C107  C116  A    
C9    O60   A    
C43   C57   A    
C104  C113  A    
C147  H34   S    
C80   H93   S    
C89   H4    S    
C113  C121  A    
C93   H10   S    
C51   C60   A    
C23   S17   S    
C140  C149  A    
C84   H111  S    
C99   H27   S    
C21   S19   S    
Cu2   O57   S    
Cu3   O55   S    
C129  C182  A    
O106  S4    D    
C34   C37   A    
H53   O101  S    
C112  O36   A    
C116  O113  S    
H107  O17   S    
C92   O26   S    
Cu2   Cu12  S    
H47   O85   S    
O7    S8    S    
C168  C185  A    
C75   H82   S    
C94   H15   S    
C171  C188  A    
C72   H74   S    
C8    O58   A    
C179  O49   A    
C81   H96   S    
C169  C186  A    
C47   C178  A    
C3    C172  A    
C86   H118  S    
C73   H76   S    
C97   H22   S    
C103  C111  A    
C10   C142  S    
C46   H37   S    
O98   S20   S    
C102  H103  S    
H101  O123  S    
C104  C125  A    
H45   O78   S    
C180  O50   A    
Cu2   O67   S    
C109  C118  A    
C160  C169  A    
O118  S5    D    
C70   C71   S    
C3    C137  A    
H44   O75   S    
C5    O55   A    
C96   H19   S    
C98   H25   S    
Cu8   O30   S    
C1    C161  S    
C11   O68   A    
C90   H81   S    
Cu6   O48   S    
Cu12  O60   S    
C57   H48   S    
H52   O98   S    
C130  C139  A    
C166  O23   S    
C91   H5    S    
Cu7   O46   S    
Cu1   O34   S    
C78   O116  S    
Cu11  O103  S    
C112  O33   A    
Cu4   O53   S    
O87   S17   D    
C69   H66   S    
C111  O109  S    
C82   H99   S    
C54   C62   A    
C80   H91   S    
C72   H73   S    
C96   O28   S    
O74   S12   D    
C132  C185  A    
C134  O39   A    
Cu8   O39   S    
C87   O23   S    
C18   C57   A    
C181  O48   A    
C93   H12   S    
C7    O64   A    
O97   S20   D    
C74   O113  S    
C84   H113  S    
C143  C152  A    
Cu9   O40   S    
Cu10  O32   S    
C21   C23   A    
C70   O111  S    
C58   C173  S    
C107  C121  A    
Cu6   O36   S    
H55   O108  S    
C158  C166  A    
C78   H89   S    
C145  O40   A    
C112  C163  S    
C46   C47   A    
C17   C68   A    
C177  O37   A    
C115  C124  A    
O88   S17   S    
O84   S16   D    
C35   H1    S    
C106  C185  S    
C85   H115  S    
C68   H59   S    
Cu10  O41   S    
C25   S16   S    
C151  H39   S    
C172  O29   S    
C153  C162  A    
C16   C79   A    
C33   C41   A    
C36   C38   A    
C132  S8    S    
C156  O24   A    
C110  C122  A    
O4    S7    S    
Cu1   O114  S    
O102  S3    D    
O96   S20   D    
C1    O34   A    
C92   C93   S    
C78   C80   S    
C94   C95   S    
C164  C182  A    
C20   C36   A    
C122  H33   S    
C10   O67   A    
C83   H109  S    
C87   C88   S    
Cu1   O1    S    
C134  O2    A    
C60   C175  S    
C32   C42   A    
O71   S1    D    
C61   S20   S    
C30   C32   A    
H50   O91   S    
C181  O51   A    
Cu7   O38   S    
C75   H83   S    
C156  O41   A    
C103  C182  S    
C108  C187  S    
O20   S13   S    
C81   C82   S    
C82   H97   S    
C4    O54   A    
C70   H67   S    
Cu6   O13   S    
Cu3   O52   S    
C59   C64   A    
C60   C63   A    
C17   C26   A    
C173  O81   A    
Cu9   O49   S    
C5    O62   A    
C73   H75   S    
O94   S19   D    
C62   S2    S    
Cu8   O47   S    
C65   H56   S    
C55   C61   A    
C95   H18   S    
C159  C168  A    
C6    O52   A    
C144  C153  A    
O80   S15   D    
C34   C39   A    
H106  O14   S    
O12   S10   D    
C129  C138  A    
C150  H38   S    
C67   O110  S    
C146  C154  A    
C164  O21   S    
C31   C33   A    
C174  O44   A    
C123  O38   A    
H51   O95   S    
O72   S1    S    
C88   H124  S    
Cu4   O63   S    
C128  H13   S    
C15   C23   A    
C12   C32   A    
C92   H9    S    
C29   S1    S    
C22   S18   S    
O18   S13   D    
C69   H64   S    
O76   S14   D    
C20   C29   A    
C109  C188  S    
C74   H79   S    
C79   H70   S    
C74   C75   S    
C105  C114  A    
H108  O20   S    
C76   C77   S    
C83   H110  S    
O15   S11   D    
C123  C162  S    
Cu5   O35   S    
O8    S9    D    
C12   C21   A    
C167  O42   A    
C129  S5    S    
C49   C58   A    
C111  C120  A    
C67   C69   S    
C114  C122  A    
C6    C138  S    
C175  O103  A    
C12   C102  A    
C92   H8    S    
C4    C140  S    
C53   C62   A    
C5    C141  S    
C26   S15   S    
C152  H40   S    
C138  C147  A    
O11   S10   D    
C96   C97   S    
C56   C63   A    
C8    C144  S    
C17   C37   A    
Cu12  O56   S    
C133  C186  A    
C161  C170  A    
C80   H94   S    
C89   H3    S    
C180  O59   A    
C45   C54   A    
Cu10  O92   S    
Cu3   O61   S    
C76   H85   S    
C44   C68   A    
C77   H88   S    
O107  S4    D    
C84   H112  S    
C67   H62   S    
C167  O13   A    
C47   C55   A    
C24   C49   A    
Cu2   O58   S    
C121  H30   S    
C105  C128  A    
C156  C159  S    
C18   C27   A    
O5    S8    D    
C19   C34   A    
O9    S9    D    
C13   C48   A    
C109  C124  A    
O3    S7    D    
O101  S2    S    
Cu7   O59   S    
C155  C164  A    
C76   O115  S    
C26   C28   A    
C151  C160  A    
C81   H95   S    
C15   C90   A    
C7    C139  S    
C176  O92   A    
C86   H119  S    
C7    O53   A    
C145  O114  A    
C97   H21   S    
C83   O21   S    
Cu12  O68   S    
C145  C155  S    
C134  C157  S    
C71   H71   S    
C65   C66   S    
H46   O82   S    
C98   H26   S    
