data_str_m4_o22_o22_f0_acs.sym.76
_audit_creation_date              2013-03-05T15:47:09-0500
_audit_creation_method            fapswitch 2.2
_symmetry_space_group_name_H-M    P1
_symmetry_Int_Tables_number       1
_space_group_crystal_system       triclinic
_cell_length_a                    19.733224
_cell_length_b                    11.296621
_cell_length_c                    18.718621
_cell_angle_alpha                 89.99957
_cell_angle_beta                  89.957461
_cell_angle_gamma                 90.000793
_cell_volume                      4172.73049381

loop_
_atom_site_label
_atom_site_type_symbol
_atom_site_description
_atom_site_fract_x
_atom_site_fract_y
_atom_site_fract_z
_atom_type_partial_charge
O1    O     O_R   0.957210 0.449410 0.665480 -0.531186
O2    O     O_R   0.042790 0.449410 0.334520 -0.531178
O3    O     O_R   0.457210 0.949410 0.665480 -0.531184
O4    O     O_R   0.542790 0.949410 0.334520 -0.531184
O5    O     O_R   0.820730 0.541240 0.668250 -0.530124
O6    O     O_R   0.179270 0.541240 0.331750 -0.530106
O7    O     O_R   0.320730 0.041240 0.668250 -0.530124
O8    O     O_R   0.679270 0.041240 0.331750 -0.530106
C1    C     C_R   0.762114 0.521846 0.638629 0.577607
C2    C     C_R   0.237887 0.521842 0.361372 0.577471
C3    C     C_R   0.262112 0.021855 0.638632 0.577646
C4    C     C_R   0.737883 0.021829 0.361376 0.577503
O9    O     O_R   0.714240 0.455060 0.663710 -0.435893
O10   O     O_R   0.285760 0.455060 0.336290 -0.435936
O11   O     O_R   0.214240 0.955060 0.663710 -0.435905
O12   O     O_R   0.785760 0.955060 0.336290 -0.435899
O13   O     O_R   0.736780 0.204870 0.675910 -0.515506
O14   O     O_R   0.263220 0.204870 0.324090 -0.515509
O15   O     O_R   0.236780 0.704870 0.675910 -0.515504
O16   O     O_R   0.763220 0.704870 0.324090 -0.515515
C5    C     C_R   0.773601 0.119946 0.650114 0.536906
C6    C     C_R   0.226393 0.119952 0.349892 0.536924
C7    C     C_R   0.273605 0.619953 0.650111 0.536918
C8    C     C_R   0.726394 0.619950 0.349890 0.536917
O17   O     O_R   0.833070 0.087590 0.673490 -0.521930
O18   O     O_R   0.166930 0.087590 0.326510 -0.521889
O19   O     O_R   0.333070 0.587590 0.673490 -0.521921
O20   O     O_R   0.666930 0.587590 0.326510 -0.521893
O21   O     O_R   0.946890 0.246800 0.676300 -0.488778
O22   O     O_R   0.053110 0.246800 0.323700 -0.488827
O23   O     O_R   0.446890 0.746800 0.676300 -0.488787
O24   O     O_R   0.553110 0.746800 0.323700 -0.488810
C9    C     C_R   0.968473 0.342652 0.644721 0.562139
C10   C     C_R   0.031529 0.342653 0.355276 0.561982
C11   C     C_R   0.468470 0.842652 0.644720 0.562104
C12   C     C_R   0.531527 0.842652 0.355276 0.562003
O25   O     O_R   0.956650 0.457120 0.827980 -0.530363
O26   O     O_R   0.043350 0.457120 0.172020 -0.530367
O27   O     O_R   0.456650 0.957120 0.827980 -0.530363
O28   O     O_R   0.543350 0.957120 0.172020 -0.530367
O29   O     O_R   0.820220 0.548390 0.818890 -0.511096
O30   O     O_R   0.179780 0.548390 0.181110 -0.511097
O31   O     O_R   0.320220 0.048390 0.818890 -0.511093
O32   O     O_R   0.679780 0.048390 0.181110 -0.511091
C13   C     C_R   0.760552 0.534203 0.848731 0.542476
C14   C     C_R   0.239449 0.534206 0.151271 0.542448
C15   C     C_R   0.260552 0.034203 0.848731 0.542486
C16   C     C_R   0.739448 0.034203 0.151269 0.542461
O33   O     O_R   0.713680 0.462770 0.826210 -0.517931
O34   O     O_R   0.286320 0.462770 0.173790 -0.517930
O35   O     O_R   0.213680 0.962770 0.826210 -0.517933
O36   O     O_R   0.786320 0.962770 0.173790 -0.517923
O37   O     O_R   0.736260 0.212010 0.826560 -0.512742
O38   O     O_R   0.263740 0.212010 0.173440 -0.512741
O39   O     O_R   0.236260 0.712010 0.826560 -0.512741
O40   O     O_R   0.763740 0.712010 0.173440 -0.512744
C17   C     C_R   0.774210 0.133090 0.858927 0.529969
C18   C     C_R   0.225788 0.133098 0.141070 0.529970
C19   C     C_R   0.274211 0.633094 0.858929 0.529978
C20   C     C_R   0.725786 0.633103 0.141069 0.529974
O41   O     O_R   0.832520 0.095300 0.836000 -0.532662
O42   O     O_R   0.167480 0.095300 0.164000 -0.532662
O43   O     O_R   0.332520 0.595300 0.836000 -0.532657
O44   O     O_R   0.667480 0.595300 0.164000 -0.532660
O45   O     O_R   0.946380 0.253940 0.826940 -0.504612
O46   O     O_R   0.053620 0.253940 0.173060 -0.504625
O47   O     O_R   0.446380 0.753940 0.826940 -0.504616
O48   O     O_R   0.553620 0.753940 0.173060 -0.504624
C21   C     C_R   0.968094 0.353010 0.854210 0.541960
C22   C     C_R   0.031899 0.353009 0.145793 0.541916
C23   C     C_R   0.468101 0.853009 0.854207 0.541941
C24   C     C_R   0.531895 0.853009 0.145795 0.541910
Cr1   Cr    Cr6+3 0.885690 0.492860 0.745310 1.005983
Cr2   Cr    Cr6+3 0.114310 0.492860 0.254690 1.005961
Cr3   Cr    Cr6+3 0.385690 0.992860 0.745310 1.005987
Cr4   Cr    Cr6+3 0.614310 0.992860 0.254690 1.005968
Cr5   Cr    Cr6+3 0.729880 0.332270 0.748190 1.045359
Cr6   Cr    Cr6+3 0.270120 0.332270 0.251810 1.045358
Cr7   Cr    Cr6+3 0.229880 0.832270 0.748190 1.045357
Cr8   Cr    Cr6+3 0.770120 0.832270 0.251810 1.045363
Cr9   Cr    Cr6+3 0.888120 0.178590 0.753010 1.032555
Cr10  Cr    Cr6+3 0.111880 0.178590 0.246990 1.032536
Cr11  Cr    Cr6+3 0.388120 0.678590 0.753010 1.032556
Cr12  Cr    Cr6+3 0.611880 0.678590 0.246990 1.032546
O49   O     O_3   0.834560 0.334570 0.748840 -0.295923
O50   O     O_3   0.165440 0.334570 0.251160 -0.295897
O51   O     O_3   0.334560 0.834570 0.748840 -0.295923
O52   O     O_3   0.665440 0.834570 0.251160 -0.295908
C25   C     C_3   0.686088 0.131224 0.465909 -0.272118
C26   C     C_3   0.313932 0.131200 0.534087 -0.272134
C27   C     C_3   0.186097 0.631238 0.465903 -0.272124
C28   C     C_3   0.813927 0.631205 0.534088 -0.272129
H1    H     H_    0.685880 0.219724 0.440530 0.109412
H2    H     H_    0.314187 0.219703 0.559467 0.109433
H3    H     H_    0.185885 0.719733 0.440518 0.109404
H4    H     H_    0.814168 0.719710 0.559467 0.109429
C29   C     C_3   0.691431 0.144755 0.547276 -0.239357
C30   C     C_3   0.308571 0.144738 0.452721 -0.239363
C31   C     C_3   0.191443 0.644780 0.547268 -0.239363
C32   C     C_3   0.808569 0.644739 0.452721 -0.239363
H5    H     H_    0.686482 0.236867 0.563107 0.159198
H6    H     H_    0.313529 0.236849 0.436889 0.159224
H7    H     H_    0.186516 0.736897 0.563091 0.159167
H8    H     H_    0.813523 0.736850 0.436889 0.159222
H9    H     H_    0.647353 0.101978 0.573133 0.124939
H10   H     H_    0.352638 0.101950 0.426852 0.124943
H11   H     H_    0.147358 0.602033 0.573132 0.124956
H12   H     H_    0.852639 0.601956 0.426856 0.124946
H13   H     H_    0.702014 0.924372 0.586013 0.117903
H14   H     H_    0.297959 0.924348 0.414016 0.117855
H15   H     H_    0.202009 0.424395 0.586004 0.117925
H16   H     H_    0.797961 0.424347 0.414003 0.117851
C33   C     C_3   0.753284 0.937549 0.482022 -0.238111
C34   C     C_3   0.246677 0.937574 0.517998 -0.238140
C35   C     C_3   0.253286 0.437558 0.482016 -0.238097
C36   C     C_3   0.746692 0.437564 0.517991 -0.238119
C37   C     C_3   0.808865 0.131217 0.449922 0.075785
C38   C     C_3   0.191171 0.131330 0.550084 0.075765
C39   C     C_3   0.308876 0.631217 0.449916 0.075782
C40   C     C_3   0.691162 0.631290 0.550081 0.075778
C41   C     C_3   0.745735 0.055247 0.437399 0.053668
C42   C     C_3   0.254267 0.055280 0.562611 0.053707
C43   C     C_3   0.245741 0.555257 0.437393 0.053671
C44   C     C_3   0.754267 0.555267 0.562608 0.053697
H17   H     H_    0.798470 0.223567 0.433260 0.093491
H18   H     H_    0.201630 0.223686 0.566659 0.093643
H19   H     H_    0.298484 0.723565 0.433254 0.093494
H20   H     H_    0.701601 0.723641 0.566676 0.093626
C45   C     C_3   0.758476 0.088841 0.575106 0.028698
C46   C     C_3   0.241511 0.088846 0.424903 0.028718
C47   C     C_3   0.258483 0.588852 0.575100 0.028688
C48   C     C_3   0.741513 0.588841 0.424901 0.028711
C49   C     C_3   0.750482 0.956624 0.563290 -0.277806
C50   C     C_3   0.249492 0.956627 0.436727 -0.277844
C51   C     C_3   0.250481 0.456636 0.563284 -0.277804
C52   C     C_3   0.749496 0.456623 0.436722 -0.277828
C53   C     C_3   0.821391 0.130077 0.530959 -0.211081
C54   C     C_3   0.178595 0.130091 0.469064 -0.211205
C55   C     C_3   0.321402 0.630081 0.530952 -0.211092
C56   C     C_3   0.678597 0.630079 0.469059 -0.211180
H21   H     H_    0.839091 0.216904 0.549287 0.078332
H22   H     H_    0.160876 0.216895 0.450709 0.078426
H23   H     H_    0.339108 0.716910 0.549276 0.078335
H24   H     H_    0.660884 0.716892 0.450714 0.078395
H25   H     H_    0.860805 0.062593 0.542305 0.177423
H26   H     H_    0.139183 0.062572 0.457793 0.177202
H27   H     H_    0.360810 0.562591 0.542297 0.177419
H28   H     H_    0.639184 0.562570 0.457771 0.177258
H29   H     H_    0.804285 0.903828 0.472266 0.187333
H30   H     H_    0.195654 0.903928 0.527752 0.187263
H31   H     H_    0.304286 0.403834 0.472262 0.187332
H32   H     H_    0.695681 0.403879 0.527753 0.187273
C57   C     C_3   0.009945 0.209231 0.460488 -0.217084
C58   C     C_3   0.990059 0.209222 0.539499 -0.217011
C59   C     C_3   0.509950 0.709226 0.460493 -0.217067
C60   C     C_3   0.490067 0.709217 0.539504 -0.217031
H33   H     H_    0.057961 0.168852 0.454272 0.131287
H34   H     H_    0.942022 0.168906 0.545685 0.131304
H35   H     H_    0.557975 0.668888 0.454286 0.131266
H36   H     H_    0.442046 0.668847 0.545707 0.131340
H37   H     H_    0.977602 0.153345 0.428388 0.231347
H38   H     H_    0.022377 0.153267 0.571594 0.231369
H39   H     H_    0.477622 0.653305 0.428397 0.231392
H40   H     H_    0.522408 0.653307 0.571594 0.231366
H41   H     H_    0.615686 0.894277 0.455626 0.112757
H42   H     H_    0.384287 0.894208 0.544362 0.112719
H43   H     H_    0.115695 0.394261 0.455625 0.112753
H44   H     H_    0.884302 0.394238 0.544362 0.112730
H45   H     H_    0.598725 0.829302 0.574232 0.153969
H46   H     H_    0.401275 0.829198 0.425746 0.153766
H47   H     H_    0.098729 0.329289 0.574227 0.154075
H48   H     H_    0.901281 0.329244 0.425740 0.153703
C61   C     C_3   0.064179 0.409753 0.474584 -0.234261
C62   C     C_3   0.935821 0.409730 0.525405 -0.234256
C63   C     C_3   0.564167 0.909763 0.474584 -0.234260
C64   C     C_3   0.435808 0.909709 0.525403 -0.234245
C65   C     C_3   0.941686 0.389377 0.444603 -0.260284
C66   C     C_3   0.058314 0.389399 0.555383 -0.260249
C67   C     C_3   0.441675 0.889352 0.444602 -0.260264
C68   C     C_3   0.558304 0.889409 0.555383 -0.260265
C69   C     C_3   0.011573 0.335647 0.431210 0.045210
C70   C     C_3   0.988433 0.335640 0.568783 0.045269
C71   C     C_3   0.511567 0.835641 0.431210 0.045224
C72   C     C_3   0.488426 0.835636 0.568783 0.045246
H49   H     H_    0.936329 0.474517 0.415657 0.127808
H50   H     H_    0.063672 0.474536 0.584330 0.127770
H51   H     H_    0.436306 0.974485 0.415649 0.127786
H52   H     H_    0.563654 0.974552 0.584331 0.127792
H53   H     H_    0.949229 0.503676 0.534671 0.142472
H54   H     H_    0.050777 0.503702 0.465313 0.142476
H55   H     H_    0.449216 0.003656 0.534665 0.142475
H56   H     H_    0.550758 0.003710 0.465311 0.142481
C73   C     C_3   0.814062 0.016267 0.045308 -0.226336
C74   C     C_3   0.185941 0.016262 0.954693 -0.226348
C75   C     C_3   0.314063 0.516270 0.045308 -0.226338
C76   C     C_3   0.685941 0.516260 0.954693 -0.226354
H57   H     H_    0.819023 0.922474 0.058075 0.136765
H58   H     H_    0.180997 0.922462 0.941937 0.136754
H59   H     H_    0.319019 0.422476 0.058072 0.136765
H60   H     H_    0.681008 0.422457 0.941945 0.136751
H61   H     H_    0.858594 0.058179 0.071449 0.122224
H62   H     H_    0.141405 0.058140 0.928545 0.122245
H63   H     H_    0.358596 0.558172 0.071452 0.122225
H64   H     H_    0.641404 0.558119 0.928541 0.122252
C77   C     C_3   0.819327 0.030994 0.965988 -0.227547
C78   C     C_3   0.180670 0.031004 0.034010 -0.227562
C79   C     C_3   0.319329 0.531001 0.965990 -0.227555
C80   C     C_3   0.680667 0.531013 0.034008 -0.227570
H65   H     H_    0.868545 0.069883 0.953872 0.134712
H66   H     H_    0.131458 0.069911 0.046114 0.134705
H67   H     H_    0.368545 0.569896 0.953877 0.134709
H68   H     H_    0.631459 0.569931 0.046105 0.134699
H69   H     H_    0.820497 0.942484 0.940081 0.118703
H70   H     H_    0.179487 0.942503 0.059924 0.118718
H71   H     H_    0.320504 0.442494 0.940081 0.118710
H72   H     H_    0.679476 0.442518 0.059925 0.118727
H73   H     H_    0.662687 0.947632 0.050740 0.109441
H74   H     H_    0.337311 0.947637 0.949268 0.109436
H75   H     H_    0.162694 0.447634 0.050744 0.109438
H76   H     H_    0.837308 0.447637 0.949269 0.109435
H77   H     H_    0.703050 0.940084 0.928816 0.111165
H78   H     H_    0.296952 0.940102 0.071188 0.111160
H79   H     H_    0.203050 0.440090 0.928818 0.111170
H80   H     H_    0.796947 0.440105 0.071188 0.111164
C81   C     C_3   0.683770 0.030257 0.031319 -0.217845
C82   C     C_3   0.316230 0.030267 0.968682 -0.217851
C83   C     C_3   0.183773 0.530262 0.031322 -0.217841
C84   C     C_3   0.816229 0.530269 0.968682 -0.217854
C85   C     C_3   0.754019 0.204054 0.061734 -0.259321
C86   C     C_3   0.245981 0.204056 0.938260 -0.259307
C87   C     C_3   0.254020 0.704058 0.061736 -0.259320
C88   C     C_3   0.745980 0.704058 0.938259 -0.259306
C89   C     C_3   0.747482 0.070919 0.074820 0.059166
C90   C     C_3   0.252519 0.070922 0.925179 0.059165
C91   C     C_3   0.247484 0.570924 0.074822 0.059169
C92   C     C_3   0.752518 0.570923 0.925178 0.059164
H81   H     H_    0.712881 0.252640 0.089751 0.113055
H82   H     H_    0.287122 0.252642 0.910245 0.113060
H83   H     H_    0.212881 0.752643 0.089753 0.113051
H84   H     H_    0.787120 0.752644 0.910243 0.113056
H85   H     H_    0.802812 0.237515 0.082760 0.113670
H86   H     H_    0.197190 0.237514 0.917229 0.113688
H87   H     H_    0.302813 0.737519 0.082763 0.113668
H88   H     H_    0.697188 0.737513 0.917228 0.113686
C93   C     C_3   0.759686 0.105440 0.936005 0.061039
C94   C     C_3   0.240313 0.105450 0.063992 0.061034
C95   C     C_3   0.259687 0.605445 0.936007 0.061034
C96   C     C_3   0.740311 0.605455 0.063991 0.061033
C97   C     C_3   0.696048 0.031030 0.949318 -0.259418
C98   C     C_3   0.303952 0.031046 0.050682 -0.259409
C99   C     C_3   0.196049 0.531035 0.949320 -0.259413
C100  C     C_3   0.803949 0.531049 0.050682 -0.259404
C101  C     C_3   0.749098 0.222857 0.979580 -0.220565
C102  C     C_3   0.250897 0.222865 0.020414 -0.220576
C103  C     C_3   0.249101 0.722862 0.979582 -0.220566
C104  C     C_3   0.750896 0.722870 0.020413 -0.220580
H89   H     H_    0.780635 0.294942 0.961188 0.107068
H90   H     H_    0.219346 0.294932 0.038797 0.107068
H91   H     H_    0.280640 0.794944 0.961192 0.107069
H92   H     H_    0.719349 0.794942 0.038795 0.107069
H93   H     H_    0.696397 0.250579 0.969080 0.118012
H94   H     H_    0.303592 0.250612 0.030921 0.118014
H95   H     H_    0.196401 0.750590 0.969080 0.118012
H96   H     H_    0.803592 0.750614 0.030917 0.118013
H97   H     H_    0.644368 0.097559 0.041963 0.120218
H98   H     H_    0.355633 0.097567 0.958034 0.120222
H99   H     H_    0.144369 0.597561 0.041968 0.120220
H100  H     H_    0.855632 0.597568 0.958034 0.120224
H101  H     H_    0.651878 0.070065 0.921104 0.112391
H102  H     H_    0.348120 0.070091 0.078894 0.112393
H103  H     H_    0.151879 0.570072 0.921108 0.112395
H104  H     H_    0.848118 0.570091 0.078894 0.112394
C105  C     C_3   0.004809 0.478078 0.040017 -0.227941
C106  C     C_3   0.995187 0.478077 0.959985 -0.227944
C107  C     C_3   0.504809 0.978078 0.040017 -0.227939
C108  C     C_3   0.495189 0.978078 0.959984 -0.227941
H105  H     H_    0.961547 0.524289 0.065863 0.117940
H106  H     H_    0.038451 0.524282 0.934138 0.117944
H107  H     H_    0.461546 0.024289 0.065861 0.117936
H108  H     H_    0.538453 0.024286 0.934139 0.117938
H109  H     H_    0.615241 0.785127 0.045431 0.109406
H110  H     H_    0.384750 0.785128 0.954572 0.109407
H111  H     H_    0.115240 0.285142 0.045420 0.109401
H112  H     H_    0.884745 0.285130 0.954581 0.109401
H113  H     H_    0.599375 0.849060 0.923992 0.111814
H114  H     H_    0.400619 0.849069 0.076011 0.111801
H115  H     H_    0.099368 0.349051 0.923984 0.111818
H116  H     H_    0.900622 0.349064 0.076018 0.111804
C109  C     C_3   0.063852 0.274720 0.026126 -0.218088
C110  C     C_3   0.936134 0.274723 0.973879 -0.218089
C111  C     C_3   0.563853 0.774720 0.026129 -0.218079
C112  C     C_3   0.436138 0.774723 0.973875 -0.218078
C113  C     C_3   0.942051 0.292320 0.055683 -0.259964
C114  C     C_3   0.057935 0.292312 0.944322 -0.259956
C115  C     C_3   0.442050 0.792322 0.055680 -0.259969
C116  C     C_3   0.557941 0.792316 0.944324 -0.259964
C117  C     C_3   0.010950 0.350010 0.069248 0.060562
C118  C     C_3   0.989039 0.350009 0.930755 0.060555
C119  C     C_3   0.510949 0.850011 0.069249 0.060564
C120  C     C_3   0.489045 0.850010 0.930754 0.060556
H117  H     H_    0.938574 0.205833 0.083696 0.118040
H118  H     H_    0.061408 0.205823 0.916312 0.118058
H119  H     H_    0.438571 0.705836 0.083694 0.118036
H120  H     H_    0.561418 0.705829 0.916312 0.118050
H121  H     H_    0.949293 0.181241 0.963196 0.122187
H122  H     H_    0.050693 0.181237 0.036815 0.122191
H123  H     H_    0.449299 0.681241 0.963193 0.122187
H124  H     H_    0.550690 0.681238 0.036814 0.122190
H125  H     H_    0.637511 0.094895 0.450778 0.145152
H126  H     H_    0.362494 0.094824 0.549212 0.145152
H127  H     H_    0.137520 0.594901 0.450778 0.145154
H128  H     H_    0.862495 0.594843 0.549214 0.145150
H129  H     H_    0.791871 0.907332 0.590393 0.131902
H130  H     H_    0.208098 0.907350 0.409623 0.131882
H131  H     H_    0.291865 0.407336 0.590389 0.131904
H132  H     H_    0.708099 0.407347 0.409623 0.131892
H133  H     H_    0.048824 0.531908 0.053285 0.132737
H134  H     H_    0.951174 0.531911 0.946715 0.132733
H135  H     H_    0.548824 0.031909 0.053288 0.132742
H136  H     H_    0.451176 0.031910 0.946713 0.132739
H137  H     H_    0.718907 0.868314 0.464971 0.087708
H138  H     H_    0.281033 0.868303 0.535057 0.087802
H139  H     H_    0.218911 0.368320 0.464962 0.087707
H140  H     H_    0.781063 0.368317 0.535042 0.087781
N1    N     N_R   0.867431 0.090476 0.408191 0.041270
O53   O     O_R   0.899707 0.993460 0.424425 -0.381759
O54   O     O_R   0.880696 0.141766 0.347402 -0.364461
N2    N     N_R   0.132619 0.090813 0.591898 0.041243
O55   O     O_R   0.100407 0.993635 0.575941 -0.381383
O56   O     O_R   0.119354 0.142484 0.652552 -0.364843
N3    N     N_R   0.367441 0.590469 0.408189 0.041310
O57   O     O_R   0.399708 0.493445 0.424413 -0.381729
O58   O     O_R   0.380746 0.641816 0.347433 -0.364550
N4    N     N_R   0.632610 0.590717 0.591872 0.041246
O59   O     O_R   0.600398 0.493564 0.575865 -0.381420
O60   O     O_R   0.619333 0.642317 0.652544 -0.364788

loop_
_geom_bond_atom_site_label_1
_geom_bond_atom_site_label_2
_geom_bond_distance
_ccdc_geom_bond_type
H48   C65   1.105568 S    
C31   H7    1.086285 S    
O4    C12   1.286331 A    
C113  C117  1.529109 S    
O39   C19   1.312780 A    
C110  C113  1.548606 S    
Cr7   O51   2.065884 S    
C83   C99   1.553793 S    
C114  C118  1.529107 S    
O25   C21   1.294377 A    
C75   H63   1.111944 S    
O21   C9    1.304944 A    
C32   H8    1.086312 S    
C73   H61   1.111961 S    
C1    O9    1.296695 A    
O44   Cr12  2.121277 S    
C84   H100  1.105460 S    
C3    O11   1.296708 A    
C64   C67   1.534162 S    
C108  H108  1.111206 S    
H47   C66   1.105433 S    
C76   H64   1.111891 S    
C50   H130  1.111352 S    
H45   C68   1.105522 S    
C29   H9    1.106212 S    
O2    C10   1.286315 A    
H112  C110  1.083139 S    
C33   C49   1.537369 S    
C6    C46   1.478047 S    
O17   Cr9   2.110660 S    
C46   C50   1.518142 S    
C74   C90   1.552896 S    
C107  C119  1.551522 S    
C103  H91   1.080997 S    
O31   Cr3   1.989221 S    
C35   C43   1.577298 S    
O16   Cr8   1.979913 S    
H13   C49   1.108064 S    
C35   H139  1.083569 S    
C115  C119  1.529119 S    
C30   H6    1.086325 S    
C93   C101  1.571012 S    
O13   C5    1.296518 A    
O28   Cr4   2.126413 S    
C57   H37   1.080515 S    
O12   Cr8   2.126202 S    
C108  H136  1.089121 S    
O15   C7    1.296527 A    
O46   Cr10  1.990910 S    
C80   H68   1.089579 S    
C40   N4    1.468220 S    
C62   C65   1.534150 S    
C66   C70   1.527349 S    
H109  C111  1.083152 S    
C45   C49   1.518128 S    
C51   H131  1.111361 S    
C103  H95   1.103871 S    
C96   C100  1.531387 S    
C21   C118  1.491931 S    
C104  H96   1.103852 S    
C34   H30   1.091453 S    
C85   H81   1.111162 S    
C46   C54   1.562138 S    
C31   H11   1.106225 S    
C81   C89   1.567226 S    
C63   C71   1.561712 S    
C101  H93   1.103877 S    
C64   C72   1.561711 S    
C106  H134  1.089116 S    
Cr12  O52   2.056219 S    
C79   C95   1.551897 S    
C32   C48   1.556246 S    
C17   O41   1.299884 A    
C39   C43   1.530955 S    
C19   O43   1.299882 A    
C30   H10   1.106207 S    
C20   O44   1.299867 A    
C109  C117  1.569555 S    
O1    Cr1   2.112487 S    
Cr8   O52   2.065881 S    
C83   H99   1.105473 S    
O46   C22   1.302707 A    
C86   C90   1.529209 S    
C62   H53   1.107453 S    
C66   H50   1.108991 S    
C16   O36   1.298062 A    
C45   C53   1.561970 S    
N2    O56   1.303025 A    
C35   H31   1.091351 S    
C59   C60   1.529861 S    
C58   H34   1.057921 S    
O27   C23   1.294388 A    
C38   C54   1.537011 S    
O31   C15   1.312662 A    
H74   C82   1.084532 S    
C26   H126  1.080611 S    
O47   Cr11  1.990904 S    
C13   C92   1.498206 S    
C62   C70   1.561730 S    
H44   C62   1.090668 S    
O24   C12   1.304932 A    
C59   C71   1.529968 S    
C88   C92   1.529212 S    
C38   C42   1.530925 S    
N1    O54   1.303293 A    
C55   H23   1.096362 S    
O11   Cr7   2.126193 S    
C4    C41   1.480495 S    
C40   C56   1.536992 S    
O27   Cr3   2.126416 S    
O3    Cr3   2.112487 S    
C16   C89   1.498210 S    
O8    C4    1.301676 A    
Cr5   O49   2.065884 S    
C27   C43   1.551100 S    
C79   H67   1.089641 S    
H16   C52   1.108080 S    
C85   C89   1.529216 S    
C81   H97   1.105471 S    
C75   H59   1.090575 S    
C32   H12   1.106190 S    
C73   C77   1.497572 S    
O22   C10   1.304934 A    
C59   H35   1.057874 S    
C4    O12   1.296682 A    
C60   H36   1.057947 S    
C2    O10   1.296674 A    
C63   H56   1.107492 S    
N4    O59   1.303297 A    
C64   H55   1.107459 S    
C59   H39   1.080522 S    
C76   C80   1.497538 S    
C80   C96   1.551888 S    
O5    C1    1.301645 A    
C86   H86   1.106987 S    
C78   H66   1.089625 S    
O3    C11   1.286357 A    
C48   C52   1.518132 S    
Cr1   O49   2.054182 S    
O38   C18   1.312764 A    
C34   C50   1.537376 S    
C7    C47   1.478030 S    
C12   C71   1.476787 S    
C5    C45   1.478019 S    
C112  H123  1.105701 S    
H78   C98   1.105352 S    
Cr3   O51   2.054182 S    
H14   C50   1.108077 S    
C3    C42   1.480471 S    
C113  H117  1.110918 S    
C24   C119  1.491943 S    
C9    C70   1.476854 S    
C115  H119  1.110923 S    
O26   Cr2   2.126413 S    
C116  H120  1.110922 S    
C93   C97   1.531391 S    
O29   C13   1.312661 A    
O28   C24   1.294393 A    
O14   C6    1.296554 A    
C58   H38   1.080634 S    
C8    O20   1.304927 A    
N2    O55   1.303318 A    
C63   C68   1.534106 S    
C95   C99   1.531393 S    
O40   Cr8   2.003444 S    
H46   C67   1.105589 S    
C38   H18   1.107910 S    
O41   Cr9   2.121255 S    
C78   H70   1.111462 S    
C74   H58   1.090578 S    
C35   C51   1.537372 S    
C61   C66   1.534094 S    
C54   H26   1.109672 S    
C65   C69   1.527305 S    
C104  H92   1.080969 S    
C22   C117  1.491940 S    
O33   Cr5   2.099449 S    
H111  C109  1.083130 S    
C25   H1    1.106880 S    
C105  C117  1.551518 S    
C47   C55   1.561999 S    
H80   C100  1.105354 S    
O29   Cr1   1.989221 S    
C101  H89   1.081007 S    
C37   N1    1.468438 S    
C102  H94   1.103861 S    
C87   C91   1.529208 S    
C27   C31   1.534426 S    
C33   H137  1.083554 S    
Cr9   O49   2.056243 S    
H73   C81   1.084527 S    
C39   H19   1.108024 S    
C18   O42   1.299873 A    
Cr11  O51   2.056243 S    
O26   C22   1.294387 A    
O20   Cr12  2.110664 S    
C107  C108  1.510217 S    
C110  C118  1.569570 S    
C49   H129  1.111361 S    
C60   C72   1.529999 S    
C53   H25   1.109695 S    
C78   C94   1.551890 S    
C28   C44   1.551096 S    
C94   C98   1.531386 S    
C67   H51   1.109024 S    
C74   H62   1.111917 S    
C61   H54   1.107469 S    
C65   H49   1.109001 S    
H76   C84   1.084527 S    
C10   C69   1.476758 S    
O30   C14   1.312675 A    
C5    O17   1.304974 A    
C68   H52   1.109027 S    
C105  H133  1.089119 S    
C107  H135  1.089119 S    
C68   C72   1.527352 S    
O6    Cr2   2.006317 S    
C87   C103  1.555524 S    
H43   C61   1.090634 S    
O42   Cr10  2.121277 S    
C77   H69   1.111502 S    
O18   Cr10  2.110664 S    
C75   C91   1.552901 S    
O34   Cr6   2.099427 S    
C73   C89   1.552901 S    
C108  C120  1.551522 S    
C26   H2    1.106935 S    
O24   Cr12  1.999521 S    
O30   Cr2   1.989202 S    
O48   Cr12  1.990910 S    
C97   H101  1.110751 S    
C18   C94   1.503580 S    
C2    C43   1.480474 S    
C54   H22   1.096373 S    
O37   C17   1.312784 A    
C15   O35   1.298058 A    
C94   C102  1.571011 S    
C109  H122  1.105714 S    
Cr10  O50   2.056219 S    
C105  H105  1.111209 S    
O40   C20   1.312756 A    
O43   Cr11  2.121255 S    
C107  H107  1.111203 S    
N3    O57   1.303556 A    
O21   Cr9   1.999498 S    
O39   Cr7   2.003432 S    
C8    C48   1.478042 S    
O45   Cr9   1.990904 S    
C13   O33   1.298058 A    
C30   C46   1.556263 S    
O13   Cr5   1.979932 S    
H116  C113  1.106220 S    
O15   Cr7   1.979932 S    
O35   Cr7   2.099449 S    
H77   C97   1.105359 S    
O23   C11   1.304928 A    
C112  C120  1.569569 S    
H79   C99   1.105356 S    
C82   C98   1.553786 S    
C53   H21   1.096333 S    
C36   C44   1.577336 S    
C88   H88   1.106983 S    
C56   H24   1.096373 S    
C86   C102  1.555525 S    
C82   C90   1.567221 S    
O6    C2    1.301687 A    
C40   H20   1.107886 S    
C36   C52   1.537369 S    
C48   C56   1.562100 S    
C76   C92   1.552888 S    
C109  C114  1.548598 S    
C39   C55   1.537129 S    
C14   C91   1.498210 S    
O19   Cr11  2.110660 S    
C111  C116  1.548613 S    
C11   C72   1.476825 S    
H15   C51   1.108064 S    
C85   H85   1.106981 S    
C25   C41   1.551112 S    
O45   C21   1.302692 A    
H113  C116  1.106232 S    
H114  C115  1.106233 S    
O47   C23   1.302706 A    
C57   H33   1.057941 S    
N1    O53   1.303615 A    
C114  H118  1.110919 S    
C116  C120  1.529120 S    
C75   C79   1.497564 S    
C6    O18   1.304926 A    
H75   C83   1.084538 S    
O36   Cr8   2.099427 S    
O38   Cr6   2.003444 S    
C95   C103  1.571016 S    
O32   C16   1.312672 A    
O22   Cr10  1.999521 S    
O37   Cr5   2.003432 S    
C88   C104  1.555524 S    
C28   H4    1.106951 S    
C76   H60   1.090565 S    
C56   H28   1.109675 S    
O1    C9    1.286359 A    
C52   H132  1.111355 S    
O7    C3    1.301639 A    
C55   H27   1.109665 S    
C47   C51   1.518135 S    
C106  C118  1.551519 S    
N4    O60   1.302999 A    
C102  H90   1.080970 S    
C1    C44   1.480476 S    
O23   Cr11  1.999498 S    
C87   H83   1.111158 S    
C37   C41   1.530949 S    
C23   C120  1.491946 S    
C111  H124  1.105709 S    
O16   C8    1.296549 A    
C7    O19   1.304961 A    
C111  C119  1.569560 S    
Cr4   O52   2.054207 S    
O2    Cr2   2.112474 S    
O48   C24   1.302715 A    
C15   C90   1.498206 S    
C38   N2    1.468246 S    
Cr6   O50   2.065881 S    
O10   Cr6   2.126202 S    
C80   H72   1.111429 S    
O5    Cr1   2.006319 S    
C26   C42   1.551097 S    
C79   H71   1.111476 S    
C67   C71   1.527295 S    
C74   C78   1.497552 S    
O9    Cr5   2.126193 S    
C84   C92   1.567216 S    
C33   H29   1.091355 S    
C17   C93   1.503575 S    
C99   H103  1.110749 S    
C100  H104  1.110744 S    
O7    Cr3   2.006319 S    
C27   H3    1.106880 S    
C25   C29   1.534428 S    
C87   H87   1.106978 S    
C77   H65   1.089670 S    
C105  C106  1.510206 S    
C33   C41   1.577302 S    
Cr2   O50   2.054207 S    
N3    O58   1.303196 A    
C82   H98   1.105464 S    
O14   Cr6   1.979913 S    
C20   C96   1.503575 S    
O8    Cr4   2.006317 S    
C86   H82   1.111161 S    
C98   H102  1.110743 S    
C36   H140  1.083579 S    
C36   H32   1.091407 S    
C28   C32   1.534441 S    
C28   H128  1.080671 S    
H110  C112  1.083157 S    
O25   Cr1   2.126416 S    
C110  H121  1.105692 S    
C81   C97   1.553800 S    
C106  H106  1.111203 S    
C112  C115  1.548618 S    
C37   C53   1.537142 S    
C57   C69   1.529946 S    
C25   H125  1.080706 S    
C85   C101  1.555526 S    
C96   C104  1.571013 S    
C27   H127  1.080702 S    
H41   C63   1.090661 S    
C83   C91   1.567210 S    
C14   O34   1.298061 A    
H42   C64   1.090726 S    
H115  C114  1.106224 S    
C31   C47   1.556183 S    
C29   C45   1.556203 S    
C19   C95   1.503579 S    
C37   H17   1.108061 S    
C73   H57   1.090584 S    
C58   C70   1.530014 S    
C61   C69   1.561700 S    
O4    Cr4   2.112474 S    
C34   C42   1.577356 S    
C84   C100  1.553783 S    
C60   H40   1.080547 S    
C39   N3    1.468413 S    
C88   H84   1.111158 S    
C77   C93   1.551902 S    
C34   H138  1.083633 S    
O32   Cr4   1.989202 S    
C57   C58   1.529872 S    
C26   C30   1.534447 S    
C29   H5    1.086308 S    
C40   C44   1.530916 S    
