data_str_m3_o40_o41_f0_fof.sym.66
_audit_creation_date              2013-03-05T15:41:03-0500
_audit_creation_method            fapswitch 2.2
_symmetry_space_group_name_H-M    P1
_symmetry_Int_Tables_number       1
_space_group_crystal_system       triclinic
_cell_length_a                    28.113831
_cell_length_b                    18.361611
_cell_length_c                    17.104248
_cell_angle_alpha                 89.804424
_cell_angle_beta                  61.671861
_cell_angle_gamma                 89.651776
_cell_volume                      7771.94959423

loop_
_atom_site_label
_atom_site_type_symbol
_atom_site_description
_atom_site_fract_x
_atom_site_fract_y
_atom_site_fract_z
_atom_type_partial_charge
O1    O     O_R   0.746490 0.236330 0.638080 -0.639173
O2    O     O_R   0.253510 0.763670 0.361920 -0.615621
O3    O     O_R   0.253510 0.236330 0.361920 -0.627820
O4    O     O_R   0.746490 0.763670 0.638080 -0.616197
O5    O     O_R   0.246490 0.736330 0.638080 -0.646474
O6    O     O_R   0.753510 0.263670 0.361920 -0.610852
O7    O     O_R   0.753510 0.736330 0.361920 -0.644644
O8    O     O_R   0.246490 0.263670 0.638080 -0.614865
O9    O     O_R   0.674170 0.186160 0.516270 -0.610972
O10   O     O_R   0.325830 0.813840 0.483730 -0.594154
O11   O     O_R   0.325830 0.186160 0.483730 -0.608632
O12   O     O_R   0.674170 0.813840 0.516270 -0.626483
O13   O     O_R   0.174170 0.686160 0.516270 -0.610979
O14   O     O_R   0.825830 0.313840 0.483730 -0.609880
O15   O     O_R   0.825830 0.686160 0.483730 -0.600463
O16   O     O_R   0.174170 0.313840 0.516270 -0.620221
O17   O     O_R   0.739960 0.127620 0.525000 -0.614381
O18   O     O_R   0.260040 0.872380 0.475000 -0.607544
O19   O     O_R   0.260040 0.127620 0.475000 -0.607057
O20   O     O_R   0.739960 0.872380 0.525000 -0.613090
O21   O     O_R   0.239960 0.627620 0.525000 -0.628962
O22   O     O_R   0.760040 0.372380 0.475000 -0.612206
O23   O     O_R   0.760040 0.627620 0.475000 -0.618649
O24   O     O_R   0.239960 0.372380 0.525000 -0.610722
O25   O     O_R   0.680700 0.294870 0.629350 -0.558775
O26   O     O_R   0.319300 0.705130 0.370650 -0.544469
O27   O     O_R   0.319300 0.294870 0.370650 -0.552442
O28   O     O_R   0.680700 0.705130 0.629350 -0.552839
O29   O     O_R   0.180700 0.794870 0.629350 -0.552538
O30   O     O_R   0.819300 0.205130 0.370650 -0.543161
O31   O     O_R   0.819300 0.794870 0.370650 -0.543909
O32   O     O_R   0.180700 0.205130 0.629350 -0.555521
C1    C     C_R   0.705007 0.275306 0.674117 0.867807
C2    C     C_R   0.294719 0.724422 0.325890 0.910475
C3    C     C_R   0.295337 0.274449 0.325627 0.890726
C4    C     C_R   0.701171 0.733397 0.676997 0.876920
C5    C     C_R   0.200601 0.765401 0.676850 0.856734
C6    C     C_R   0.794808 0.224143 0.326154 0.907110
C7    C     C_R   0.799197 0.765804 0.323063 0.886512
C8    C     C_R   0.205226 0.224298 0.673886 0.883003
C9    C     C_R   0.691207 0.129839 0.536309 0.863754
C10   C     C_R   0.304358 0.872382 0.479983 0.887122
C11   C     C_R   0.308925 0.129605 0.464949 0.859937
C12   C     C_R   0.690999 0.870713 0.536167 0.857707
C13   C     C_R   0.191121 0.629707 0.536871 0.841372
C14   C     C_R   0.804594 0.372170 0.479689 0.873493
C15   C     C_R   0.808457 0.629236 0.467256 0.868247
C16   C     C_R   0.191041 0.370388 0.536862 0.858717
Zn1   Zn    Zn3+2 0.792340 0.208750 0.507670 1.166665
Zn2   Zn    Zn3+2 0.207660 0.791250 0.492330 1.177436
Zn3   Zn    Zn3+2 0.207660 0.208750 0.492330 1.163366
Zn4   Zn    Zn3+2 0.792340 0.791250 0.507670 1.168121
Zn5   Zn    Zn3+2 0.292340 0.708750 0.507670 1.147927
Zn6   Zn    Zn3+2 0.707660 0.291250 0.492330 1.174777
Zn7   Zn    Zn3+2 0.707660 0.708750 0.492330 1.119703
Zn8   Zn    Zn3+2 0.292340 0.291250 0.507670 1.172574
C17   C     C_R   0.536638 0.137536 0.541960 -0.119452
C18   C     C_R   0.432775 0.874960 0.552457 -0.106868
C19   C     C_R   0.456858 0.135444 0.486537 -0.122705
C20   C     C_R   0.523049 0.873202 0.581264 -0.099757
C21   C     C_R   0.033271 0.635210 0.554800 -0.114027
C22   C     C_R   0.940241 0.370965 0.536037 -0.117710
C23   C     C_R   0.951606 0.633952 0.504430 -0.115975
C24   C     C_R   0.029443 0.368050 0.566368 -0.114032
C25   C     C_R   0.519601 0.204945 0.520320 0.341529
C26   C     C_R   0.450635 0.808164 0.571148 0.322041
C27   C     C_R   0.477598 0.204040 0.495659 0.341983
C28   C     C_R   0.492286 0.808817 0.595086 0.328690
C29   C     C_R   0.013150 0.702556 0.540238 0.329055
C30   C     C_R   0.965224 0.303401 0.533002 0.331226
C31   C     C_R   0.968879 0.701435 0.522007 0.329057
C32   C     C_R   0.007449 0.300752 0.556336 0.341123
C33   C     C_R   0.472398 0.070465 0.512701 -0.019966
C34   C     C_R   0.506483 0.938616 0.557430 -0.021638
C35   C     C_R   0.513948 0.071009 0.535918 -0.018844
C36   C     C_R   0.461899 0.939243 0.541879 -0.017708
C37   C     C_R   0.969853 0.568350 0.523207 -0.022551
C38   C     C_R   0.009435 0.435132 0.552746 -0.021503
C39   C     C_R   0.011604 0.568579 0.545938 -0.019460
C40   C     C_R   0.965319 0.436093 0.536258 -0.015559
C41   C     C_R   0.946271 0.502152 0.519005 0.055176
C42   C     C_R   0.032672 0.501680 0.557737 0.053606
C43   C     C_R   0.446306 0.004247 0.515526 0.054378
C44   C     C_R   0.532977 0.004318 0.553419 0.053899
C45   C     C_R   0.875028 0.436939 0.505629 0.043773
C46   C     C_R   0.103580 0.567214 0.570526 0.016499
C47   C     C_R   0.103082 0.434761 0.572350 0.013560
C48   C     C_R   0.887334 0.566413 0.472721 0.029962
C49   C     C_R   0.373484 0.939172 0.506786 0.027919
C50   C     C_R   0.604265 0.068744 0.565480 0.013904
C51   C     C_R   0.602792 0.936393 0.570158 0.023663
C52   C     C_R   0.389345 0.066419 0.463948 0.022072
C53   C     C_R   0.833135 0.437045 0.480545 -0.099330
C54   C     C_R   0.156364 0.565742 0.562487 -0.110971
C55   C     C_R   0.156212 0.435013 0.562811 -0.111881
C56   C     C_R   0.840991 0.565010 0.458360 -0.109520
C57   C     C_R   0.332663 0.937940 0.479648 -0.110352
C58   C     C_R   0.656486 0.066413 0.560085 -0.106985
C59   C     C_R   0.656152 0.935800 0.560401 -0.117246
C60   C     C_R   0.342097 0.065223 0.452398 -0.111973
C61   C     C_R   0.818118 0.500222 0.455095 -0.265454
C62   C     C_R   0.180476 0.500145 0.563055 -0.244830
C63   C     C_R   0.318529 0.000380 0.451206 -0.251156
C64   C     C_R   0.680399 0.000692 0.560842 -0.245394
H1    H     H_    0.785190 0.499798 0.438851 0.206422
H2    H     H_    0.221059 0.499814 0.555262 0.209483
H3    H     H_    0.285452 0.999682 0.435347 0.209115
H4    H     H_    0.720740 0.000084 0.554098 0.210567
C65   C     C_R   0.903284 0.501723 0.497954 0.062599
C66   C     C_R   0.079409 0.501218 0.568025 0.075332
C67   C     C_R   0.403603 0.003045 0.494110 0.068598
C68   C     C_R   0.579808 0.003145 0.563712 0.075781
C69   C     C_R   0.073542 0.370353 0.583531 -0.100170
C70   C     C_R   0.916501 0.630456 0.467640 -0.081917
C71   C     C_R   0.890694 0.374574 0.536699 -0.113399
C72   C     C_R   0.074873 0.632343 0.577920 -0.098471
C73   C     C_R   0.571269 0.873269 0.587372 -0.101090
C74   C     C_R   0.420630 0.129607 0.451564 -0.092511
C75   C     C_R   0.385097 0.879129 0.546573 -0.107564
C76   C     C_R   0.576162 0.134228 0.570119 -0.092856
H5    H     H_    0.085075 0.322110 0.605822 0.240975
H6    H     H_    0.914026 0.678033 0.432665 0.224523
H7    H     H_    0.865686 0.327445 0.563646 0.186765
H8    H     H_    0.084327 0.680812 0.602876 0.232630
H9    H     H_    0.584080 0.824208 0.606314 0.233684
H10   H     H_    0.417689 0.173944 0.412580 0.227133
H11   H     H_    0.356483 0.835999 0.577677 0.206853
H12   H     H_    0.584280 0.182498 0.597163 0.234394
C77   C     C_R   0.720579 0.267594 0.953914 0.004533
C78   C     C_R   0.266888 0.711446 0.056484 0.000525
C79   C     C_R   0.282231 0.262006 0.043839 0.001264
C80   C     C_R   0.720489 0.734306 0.954974 -0.006414
C81   C     C_R   0.207602 0.742286 0.964020 -0.010702
C82   C     C_R   0.776753 0.228596 0.049474 0.003593
C83   C     C_R   0.782708 0.758573 0.043762 0.002385
C84   C     C_R   0.225803 0.223006 0.949066 0.000160
C85   C     C_R   0.774616 0.242027 0.907829 -0.076681
C86   C     C_R   0.214401 0.743471 0.103435 -0.080357
C87   C     C_R   0.229823 0.231879 0.089235 -0.083475
C88   C     C_R   0.765970 0.780124 0.915865 -0.082198
C89   C     C_R   0.255539 0.700783 0.922542 -0.101421
C90   C     C_R   0.722059 0.252619 0.096495 -0.080363
C91   C     C_R   0.736844 0.713028 0.083599 -0.099591
C92   C     C_R   0.279921 0.249157 0.901805 -0.080291
C93   C     C_R   0.803651 0.227372 0.955577 0.099438
C94   C     C_R   0.184493 0.757980 0.056091 0.093255
C95   C     C_R   0.200372 0.216969 0.042690 0.091549
C96   C     C_R   0.799445 0.786861 0.957338 0.113240
C97   C     C_R   0.288087 0.693620 0.965402 0.095136
C98   C     C_R   0.693191 0.268230 0.048029 0.100432
C99   C     C_R   0.703413 0.706410 0.041777 0.095766
C100  C     C_R   0.308988 0.265082 0.949956 0.102661
C101  C     C_R   0.638427 0.312481 0.951455 0.031356
C102  C     C_R   0.353048 0.673433 0.051447 0.038813
C103  C     C_R   0.362631 0.311547 0.047572 0.036355
C104  C     C_R   0.641174 0.680714 0.952700 0.037578
C105  C     C_R   0.132291 0.804505 0.956176 0.035113
C106  C     C_R   0.860268 0.185760 0.049511 0.035765
C107  C     C_R   0.861240 0.815074 0.046482 0.045119
C108  C     C_R   0.141878 0.181180 0.950105 0.035905
C109  C     C_R   0.612749 0.339146 0.902768 -0.230422
C110  C     C_R   0.383239 0.656354 0.097307 -0.220174
C111  C     C_R   0.387420 0.339254 0.097139 -0.229123
C112  C     C_R   0.613816 0.659541 0.904014 -0.219201
C113  C     C_R   0.109648 0.835022 0.904481 -0.240961
C114  C     C_R   0.886884 0.160439 0.097369 -0.230354
C115  C     C_R   0.887727 0.838525 0.095933 -0.240447
C116  C     C_R   0.114417 0.158564 0.902421 -0.226081
C117  C     C_R   0.632367 0.319344 0.814972 0.220434
C118  C     C_R   0.365976 0.681454 0.182693 0.215621
C119  C     C_R   0.367650 0.319466 0.185120 0.215651
C120  C     C_R   0.629508 0.687417 0.819623 0.212522
C121  C     C_R   0.127786 0.811927 0.817314 0.219186
C122  C     C_R   0.867646 0.180713 0.184913 0.224399
C123  C     C_R   0.871412 0.811905 0.181401 0.221213
C124  C     C_R   0.133037 0.180642 0.815587 0.215742
C125  C     C_R   0.685371 0.293594 0.767717 -0.207064
C126  C     C_R   0.312585 0.704417 0.232846 -0.213513
C127  C     C_R   0.315322 0.291832 0.231585 -0.210145
C128  C     C_R   0.678152 0.724625 0.774766 -0.215057
C129  C     C_R   0.175372 0.771187 0.774691 -0.202191
C130  C     C_R   0.814270 0.204824 0.232956 -0.216967
C131  C     C_R   0.823483 0.772848 0.225011 -0.202907
C132  C     C_R   0.186264 0.204500 0.767109 -0.208387
C133  C     C_R   0.717548 0.282719 0.812440 -0.017367
C134  C     C_R   0.277734 0.710337 0.191997 -0.029768
C135  C     C_R   0.284178 0.278278 0.185854 -0.024581
C136  C     C_R   0.706432 0.746702 0.822911 -0.028363
C137  C     C_R   0.200652 0.743066 0.825089 -0.045649
C138  C     C_R   0.781388 0.213401 0.189312 -0.033856
C139  C     C_R   0.796438 0.748500 0.176016 -0.037614
C140  C     C_R   0.219598 0.211941 0.810125 -0.030259
C141  C     C_R   0.692248 0.287463 0.905851 0.075178
C142  C     C_R   0.299360 0.699084 0.099869 0.073073
C143  C     C_R   0.309729 0.283759 0.092445 0.073376
C144  C     C_R   0.689760 0.719769 0.909595 0.064403
C145  C     C_R   0.180539 0.763928 0.914633 0.070303
C146  C     C_R   0.806086 0.209577 0.096145 0.079308
C147  C     C_R   0.813250 0.774450 0.089123 0.073527
C148  C     C_R   0.195741 0.205834 0.903122 0.075409
C149  C     C_R   0.610349 0.303960 0.043730 -0.122161
C150  C     C_R   0.375231 0.667867 0.958476 -0.116690
C151  C     C_R   0.390790 0.304471 0.955007 -0.126195
C152  C     C_R   0.619368 0.670200 0.045291 -0.118900
C153  C     C_R   0.105269 0.806211 0.049438 -0.127257
C154  C     C_R   0.887485 0.193304 0.957059 -0.124850
C155  C     C_R   0.882830 0.826166 0.954004 -0.144160
C156  C     C_R   0.116170 0.183480 0.043172 -0.123451
C157  C     C_R   0.636580 0.277365 0.089604 -0.090008
C158  C     C_R   0.343291 0.676682 0.916993 -0.100662
C159  C     C_R   0.365254 0.277133 0.908516 -0.097054
C160  C     C_R   0.649944 0.682251 0.088318 -0.098231
C161  C     C_R   0.129935 0.779872 0.097863 -0.087567
C162  C     C_R   0.860207 0.217927 0.912140 -0.129022
C163  C     C_R   0.852338 0.813229 0.910962 -0.152049
C164  C     C_R   0.144441 0.202700 0.088134 -0.104390
C165  C     C_R   0.772413 0.260912 0.769097 -0.219111
C166  C     C_R   0.222792 0.730978 0.238354 -0.205989
C167  C     C_R   0.230297 0.252808 0.227954 -0.196504
C168  C     C_R   0.745581 0.802499 0.793661 -0.161668
C169  C     C_R   0.240619 0.687727 0.793815 -0.173127
C170  C     C_R   0.725950 0.231073 0.234158 -0.204530
C171  C     C_R   0.757222 0.692972 0.206342 -0.193926
C172  C     C_R   0.274861 0.229930 0.764826 -0.208867
C173  C     C_R   0.796591 0.229182 0.815594 0.350069
C174  C     C_R   0.195864 0.760428 0.194770 0.379288
C175  C     C_R   0.209175 0.216648 0.180315 0.372268
C176  C     C_R   0.772208 0.822927 0.842092 0.371554
C177  C     C_R   0.266345 0.664203 0.842647 0.406180
C178  C     C_R   0.699747 0.261486 0.189914 0.380617
C179  C     C_R   0.729492 0.672386 0.159857 0.390890
C180  C     C_R   0.301260 0.259684 0.808737 0.384986
H13   H     H_    0.567079 0.312688 0.080203 0.191503
H14   H     H_    0.417976 0.659518 0.915717 0.200746
H15   H     H_    0.433749 0.314984 0.918509 0.193100
H16   H     H_    0.577540 0.656568 0.087502 0.197273
H17   H     H_    0.063451 0.823100 0.086304 0.193642
H18   H     H_    0.930760 0.185036 0.919541 0.194034
H19   H     H_    0.924279 0.841694 0.912049 0.206215
H20   H     H_    0.073198 0.174296 0.082285 0.193653
H21   H     H_    0.611378 0.262134 0.157436 0.206979
H22   H     H_    0.362713 0.673252 0.845600 0.225412
H23   H     H_    0.390895 0.263378 0.840380 0.208214
H24   H     H_    0.630315 0.675660 0.159441 0.211093
H25   H     H_    0.104659 0.774659 0.167927 0.213753
H26   H     H_    0.884236 0.231942 0.843387 0.190726
H27   H     H_    0.871378 0.821423 0.840022 0.214108
H28   H     H_    0.121414 0.208070 0.159324 0.208495
H29   H     H_    0.797395 0.262451 0.698352 0.194723
H30   H     H_    0.199842 0.730124 0.309540 0.224079
H31   H     H_    0.203965 0.253952 0.298291 0.219119
H32   H     H_    0.750556 0.837964 0.739960 0.212536
H33   H     H_    0.248149 0.655902 0.736214 0.217551
H34   H     H_    0.702033 0.226293 0.305092 0.220098
H35   H     H_    0.751818 0.658905 0.261374 0.216053
H36   H     H_    0.298532 0.225857 0.693796 0.219399
O33   O     O_R   0.062020 0.072840 0.007170 -0.628050
O34   O     O_R   0.937980 0.927160 0.992830 -0.638981
O35   O     O_R   0.937980 0.072840 0.992830 -0.626181
O36   O     O_R   0.062020 0.927160 0.007170 -0.624597
O37   O     O_R   0.562020 0.572840 0.007170 -0.638300
O38   O     O_R   0.437980 0.427160 0.992830 -0.623563
O39   O     O_R   0.437980 0.572840 0.992830 -0.635210
O40   O     O_R   0.562020 0.427160 0.007170 -0.620558
O41   O     O_R   0.947860 0.073950 0.109290 -0.552979
O42   O     O_R   0.052140 0.926050 0.890710 -0.550620
O43   O     O_R   0.052140 0.073950 0.890710 -0.550507
O44   O     O_R   0.947860 0.926050 0.109290 -0.554179
O45   O     O_R   0.447860 0.573950 0.109290 -0.553728
O46   O     O_R   0.552140 0.426050 0.890710 -0.555575
O47   O     O_R   0.552140 0.573950 0.890710 -0.549999
O48   O     O_R   0.447860 0.426050 0.109290 -0.553374
C181  C     C_R   0.071827 0.103140 0.936631 0.908409
C182  C     C_R   0.927892 0.897248 0.063772 0.902385
C183  C     C_R   0.928835 0.103874 0.062780 0.904528
C184  C     C_R   0.070993 0.896029 0.937047 0.900500
C185  C     C_R   0.572652 0.602144 0.935985 0.930977
C186  C     C_R   0.428846 0.396231 0.062938 0.899379
C187  C     C_R   0.427250 0.602397 0.063674 0.925477
C188  C     C_R   0.571058 0.396043 0.937275 0.898618
Zn9   Zn    Zn3+2 0.505960 0.500000 0.080520 1.117416
Zn10  Zn    Zn3+2 0.494040 0.500000 0.919480 1.114191
Zn11  Zn    Zn3+2 0.005960 1.000000 0.080520 1.116221
Zn12  Zn    Zn3+2 0.994040 1.000000 0.919480 1.116325
S1    S     S_3+6 0.033827 0.215792 0.571774 0.086110
O49   O     O_2   0.092505 0.210397 0.503893 -0.275611
O50   O     O_2   0.029104 0.215399 0.663041 -0.279701
O51   O     O_3   0.002049 0.141300 0.563654 -0.442393
H37   H     H_    0.022058 0.099634 0.571191 0.384568
S2    S     S_3+6 0.927834 0.780497 0.538461 0.080206
O52   O     O_2   0.945138 0.817237 0.450415 -0.242099
O53   O     O_2   0.869501 0.759247 0.577113 -0.299452
O54   O     O_3   0.932592 0.838908 0.609855 -0.460543
H38   H     H_    0.925995 0.887648 0.591739 0.416396
S3    S     S_3+6 0.953318 0.230658 0.474994 0.110850
O55   O     O_2   0.911155 0.180205 0.539796 -0.208367
O56   O     O_2   0.933990 0.260331 0.412899 -0.261461
O57   O     O_3   0.010304 0.183976 0.412772 -0.452901
H39   H     H_    0.999100 0.143425 0.387148 0.392664
S4    S     S_3+6 0.047907 0.785851 0.533655 0.104513
O58   O     O_2   0.033183 0.810309 0.626191 -0.239928
O59   O     O_2   0.107795 0.773005 0.482983 -0.286120
O60   O     O_3   0.033472 0.853004 0.481095 -0.429654
H40   H     H_    0.053644 0.895839 0.484552 0.392487
S5    S     S_3+6 0.500393 0.735075 0.655574 0.083305
O61   O     O_2   0.551745 0.694539 0.597096 -0.246553
O62   O     O_2   0.503964 0.766764 0.733284 -0.271426
O63   O     O_3   0.448371 0.676888 0.695524 -0.471815
H41   H     H_    0.458920 0.637660 0.724256 0.384615
S6    S     S_3+6 0.446839 0.286816 0.483730 0.120597
O64   O     O_2   0.473976 0.307751 0.387214 -0.233808
O65   O     O_2   0.387878 0.275131 0.514473 -0.287441
O66   O     O_3   0.449903 0.357102 0.543855 -0.414543
H42   H     H_    0.436267 0.399684 0.524569 0.385183
S7    S     S_3+6 0.428343 0.724676 0.546261 0.086283
O67   O     O_2   0.375490 0.703555 0.624109 -0.277726
O68   O     O_2   0.420142 0.734790 0.466209 -0.267580
O69   O     O_3   0.474058 0.657529 0.523231 -0.452400
H43   H     H_    0.455334 0.612550 0.521399 0.389305
S8    S     S_3+6 0.554732 0.287450 0.517753 0.119119
O70   O     O_2   0.534074 0.313384 0.611647 -0.244630
O71   O     O_2   0.614036 0.271803 0.478224 -0.288038
O72   O     O_3   0.549314 0.355647 0.456718 -0.409298
H44   H     H_    0.564054 0.398960 0.472046 0.390911
N1    N     N_R   0.596761 0.321909 0.776111 0.232594
O73   O     O_R   0.598711 0.376504 0.725824 -0.313250
O74   O     O_R   0.556601 0.276634 0.803435 -0.394821
N2    N     N_R   0.404175 0.686774 0.216168 0.226776
O75   O     O_R   0.406786 0.635993 0.267386 -0.321739
O76   O     O_R   0.442632 0.734659 0.182006 -0.370655
N3    N     N_R   0.402564 0.323876 0.225112 0.233143
O77   O     O_R   0.399130 0.379198 0.275078 -0.317343
O78   O     O_R   0.443252 0.279113 0.199743 -0.389263
N4    N     N_R   0.591312 0.687787 0.786279 0.228520
O79   O     O_R   0.593444 0.637433 0.731262 -0.303799
O80   O     O_R   0.546187 0.722995 0.831785 -0.348854
N5    N     N_R   0.095365 0.825433 0.774145 0.232916
O81   O     O_R   0.102856 0.883565 0.725833 -0.312982
O82   O     O_R   0.055756 0.781823 0.788487 -0.379458
N6    N     N_R   0.903816 0.179889 0.222726 0.235342
O83   O     O_R   0.902707 0.126124 0.273463 -0.321383
O84   O     O_R   0.944088 0.225116 0.193000 -0.370989
N7    N     N_R   0.905726 0.820438 0.221909 0.223789
O85   O     O_R   0.900876 0.877032 0.270944 -0.314694
O86   O     O_R   0.941577 0.770650 0.210333 -0.397100
N8    N     N_R   0.096242 0.182210 0.779094 0.232872
O87   O     O_R   0.096373 0.129341 0.728385 -0.303517
O88   O     O_R   0.055982 0.228031 0.811076 -0.380997
S9    S     S_3+6 0.838542 0.152541 0.763097 0.076229
O89   O     O_2   0.832290 0.096372 0.831455 -0.268996
O90   O     O_2   0.822363 0.118882 0.699266 -0.181058
O91   O     O_3   0.903382 0.178242 0.706432 -0.523910
H45   H     H_    0.923520 0.143012 0.723812 0.403726
S10   S     S_3+6 0.150156 0.832195 0.254565 0.046585
O92   O     O_2   0.094570 0.801384 0.309357 -0.276916
O93   O     O_2   0.167745 0.866961 0.316102 -0.236309
O94   O     O_3   0.149091 0.896921 0.185521 -0.521385
H46   H     H_    0.120831 0.931894 0.224415 0.401757
S11   S     S_3+6 0.177344 0.132439 0.226916 0.040126
O95   O     O_2   0.181790 0.080663 0.155806 -0.274768
O96   O     O_2   0.204419 0.098653 0.275894 -0.248811
O97   O     O_3   0.112163 0.146713 0.299277 -0.522653
H47   H     H_    0.098422 0.098178 0.325567 0.399768
S12   S     S_3+6 0.795854 0.914292 0.827597 0.074781
O98   O     O_2   0.853740 0.917673 0.756459 -0.278030
O99   O     O_2   0.762699 0.961545 0.799659 -0.215364
O100  O     O_3   0.789900 0.947236 0.923675 -0.517195
H48   H     H_    0.826217 0.965352 0.909545 0.392540
S13   S     S_3+6 0.296739 0.576024 0.816428 0.051065
O101  O     O_2   0.296371 0.541269 0.896420 -0.262693
O102  O     O_2   0.265392 0.528576 0.785754 -0.265342
O103  O     O_3   0.360632 0.581782 0.734172 -0.510360
H49   H     H_    0.370990 0.531384 0.711851 0.397568
S14   S     S_3+6 0.649490 0.327010 0.252941 0.057789
O104  O     O_2   0.596208 0.288765 0.301746 -0.281629
O105  O     O_2   0.663257 0.361488 0.319226 -0.225523
O106  O     O_3   0.645587 0.393406 0.188146 -0.505219
H50   H     H_    0.610979 0.418799 0.225838 0.388438
S15   S     S_3+6 0.697674 0.585492 0.188399 0.033413
O107  O     O_2   0.696211 0.550791 0.110088 -0.265495
O108  O     O_2   0.728676 0.536207 0.218664 -0.254406
O109  O     O_3   0.634474 0.595043 0.272493 -0.555122
H51   H     H_    0.620487 0.544767 0.288036 0.400086
S16   S     S_3+6 0.350843 0.325419 0.745668 0.052731
O110  O     O_2   0.404515 0.287391 0.696912 -0.299190
O111  O     O_2   0.336797 0.359757 0.679283 -0.227382
O112  O     O_3   0.354007 0.391944 0.810436 -0.504272
H52   H     H_    0.390023 0.414255 0.775081 0.385698

loop_
_geom_bond_atom_site_label_1
_geom_bond_atom_site_label_2
_geom_bond_distance
_ccdc_geom_bond_type
O4    C4    1.255615 A    
C163  H27   1.079251 S    
O94   H46   0.990597 S    
O5    C5    1.253477 A    
S2    O54   1.680798 S    
O7    Zn7   2.040820 S    
O31   Zn4   2.094087 S    
C151  C159  1.395922 A    
O8    Zn8   2.040820 S    
N5    O81   1.303110 A    
C26   S7    1.786968 S    
C138  C146  1.405887 A    
C44   C68   1.408720 A    
C118  C126  1.392655 A    
C46   C66   1.403554 A    
C83   C147  1.435650 A    
C12   C59   1.470932 S    
O42   Zn12  1.992162 S    
O103  H49   0.990225 S    
C22   C30   1.410783 A    
C149  C157  1.392893 A    
C86   C174  1.427490 A    
C175  S11   1.777169 S    
C177  S13   1.782484 S    
C19   C33   1.410759 A    
C55   C62   1.381399 A    
S13   O103  1.679311 S    
O2    C2    1.247667 A    
C91   C99   1.431738 A    
O40   Zn9   1.988984 S    
C166  H30   1.074009 S    
O45   Zn9   1.992161 S    
O6    Zn6   2.040710 S    
C36   C43   1.413327 A    
C137  C169  1.414429 A    
C101  C149  1.398586 A    
C37   C39   1.400768 A    
S6    O65   1.498875 D    
C114  C122  1.380577 A    
C71   H7    1.073655 S    
O72   H44   0.990703 S    
S8    O72   1.679492 S    
C105  C153  1.404525 A    
N6    O83   1.302889 A    
C158  H22   1.077313 S    
C10   C57   1.445527 S    
C53   C61   1.370549 A    
O47   Zn10  2.003372 S    
O27   C3    1.298038 A    
C101  C109  1.420486 A    
C150  H14   1.080263 S    
C38   C42   1.410869 A    
O60   H40   0.990587 S    
C5    C129  1.479449 S    
O91   H45   0.990613 S    
C152  C160  1.390454 A    
C20   C73   1.408238 A    
C154  H18   1.082827 S    
C107  C155  1.414217 A    
C57   C63   1.372265 A    
C48   C65   1.404262 A    
C100  C159  1.411637 A    
C23   C31   1.417727 A    
C168  H32   1.078148 S    
C119  N3    1.440998 S    
C171  C179  1.405960 A    
C164  H28   1.078613 S    
O57   H39   0.990857 S    
C105  C113  1.423899 A    
O112  H52   0.990459 S    
C78   C86   1.426960 A    
C139  C171  1.411187 A    
C84   C148  1.437542 A    
S4    O58   1.502987 D    
C172  H36   1.075720 S    
C123  C131  1.393055 A    
C137  C145  1.411280 A    
C124  C132  1.395216 A    
O43   C181  1.276542 A    
C81   C145  1.433294 A    
C79   C143  1.436755 A    
C32   S1    1.795065 S    
C50   C58   1.427033 A    
C109  C188  1.465062 S    
S16   O111  1.503432 D    
C110  C187  1.468646 S    
C52   C67   1.402642 A    
O23   Zn7   2.009390 S    
O24   Zn8   2.009390 S    
O9    C9    1.250483 A    
C96   C163  1.400570 A    
C118  N2    1.440799 S    
C152  H16   1.078594 S    
O13   C13   1.255624 A    
O43   Zn12  2.003372 S    
C18   C75   1.392627 A    
C106  C146  1.410298 A    
C107  C115  1.435077 A    
C140  C148  1.407048 A    
C47   C69   1.408744 A    
C93   C162  1.409475 A    
C126  C134  1.451848 A    
O47   C185  1.276874 A    
C77   C85   1.416699 A    
C54   C62   1.380795 A    
C117  N1    1.441101 S    
O44   C182  1.273643 A    
S11   O95   1.503657 D    
O7    C7    1.257077 A    
C63   H3    1.085394 S    
O9    Zn6   2.104376 S    
O8    C8    1.255556 A    
C33   C43   1.412639 A    
O11   Zn8   2.096430 S    
S8    O71   1.498376 D    
S9    O89   1.503513 D    
O34   C182  1.234991 A    
O16   Zn3   2.096430 S    
C122  C130  1.395423 A    
C120  N4    1.435107 S    
C18   C36   1.402148 A    
S3    O56   1.503445 D    
C47   C66   1.404890 A    
C134  C166  1.410955 A    
C168  C176  1.407609 A    
C34   C36   1.399348 A    
C134  C142  1.409568 A    
C22   C40   1.392838 A    
C138  C170  1.408459 A    
C38   C40   1.396327 A    
C35   C44   1.420157 A    
C90   C178  1.422135 A    
O97   H47   0.991084 S    
S12   O98   1.501414 D    
N1    O74   1.300878 A    
C52   C74   1.413692 A    
S14   O104  1.501978 D    
C85   C173  1.414899 A    
O2    Zn2   2.040710 S    
C19   C27   1.430845 A    
C45   C53   1.432065 A    
S5    O62   1.499318 D    
C29   S4    1.794229 S    
C47   C55   1.423551 A    
O6    C6    1.252084 A    
C25   S8    1.802491 S    
C109  C117  1.380847 A    
C83   C91   1.414791 A    
C119  C127  1.396448 A    
C165  H29   1.073187 S    
C103  C151  1.400333 A    
C117  C125  1.395829 A    
O20   C12   1.297327 A    
O21   C13   1.289505 A    
C3    C127  1.464873 S    
C169  H33   1.077703 S    
C88   C176  1.423212 A    
O23   C15   1.304065 A    
C99   C160  1.400055 A    
O44   Zn11  2.003373 S    
C1    C125  1.463965 S    
O24   C16   1.292157 A    
S11   O96   1.503971 D    
O17   Zn1   2.021125 S    
N4    O79   1.302191 A    
S1    O50   1.502599 D    
S15   O109  1.682012 S    
C103  C111  1.425232 A    
S14   O106  1.682605 S    
C50   C76   1.416286 A    
C51   C68   1.410308 A    
O54   H38   0.990958 S    
C108  C156  1.402255 A    
N8    O88   1.300849 A    
O3    C3    1.253908 A    
C51   C73   1.406428 A    
C124  N8    1.439726 S    
C30   S3    1.791694 S    
O46   Zn10  1.992162 S    
C161  H25   1.068706 S    
C20   C28   1.420549 A    
O25   Zn6   2.094303 S    
C17   C76   1.406175 A    
O37   Zn9   1.996093 S    
S9    O91   1.677972 S    
N7    O86   1.300548 A    
C112  C185  1.469457 S    
C176  S12   1.781032 S    
O29   C5    1.300234 A    
C115  C123  1.395662 A    
C116  C124  1.380177 A    
C112  C120  1.390502 A    
S7    O69   1.682463 S    
C24   C38   1.414871 A    
C102  C110  1.435611 A    
C34   C44   1.405977 A    
N2    O75   1.302648 A    
C123  N7    1.439494 S    
C39   C42   1.415403 A    
C19   C74   1.409483 A    
C69   H5    1.070841 S    
C130  C138  1.445323 A    
S16   O112  1.682656 S    
C6    C130  1.462901 S    
S12   O100  1.684922 S    
C17   C35   1.408070 A    
C22   C71   1.388807 A    
C92   C100  1.440428 A    
C154  C162  1.391184 A    
C86   C94   1.440737 A    
C166  C174  1.396135 A    
S11   O97   1.674076 S    
O12   Zn7   2.096430 S    
C79   C87   1.414582 A    
C121  C129  1.395281 A    
O13   Zn2   2.104376 S    
O36   C184  1.242880 A    
C101  C141  1.408128 A    
C170  C178  1.395862 A    
S10   O92   1.502557 D    
O33   Zn11  1.996093 S    
O12   C12   1.261529 A    
O34   Zn12  1.996093 S    
C91   C179  1.428375 A    
C73   H9    1.072860 S    
C165  C173  1.392489 A    
S13   O102  1.504074 D    
C75   H11   1.075199 S    
C48   C56   1.436219 A    
O109  H51   0.990470 S    
O10   C10   1.245930 A    
C33   C35   1.400979 A    
C4    C128  1.487802 S    
S15   O107  1.503419 D    
O14   C14   1.240642 A    
C108  C116  1.427411 A    
O39   Zn10  1.988982 S    
O41   Zn11  1.992161 S    
C85   C93   1.426253 A    
O35   Zn12  1.988982 S    
C104  C144  1.405763 A    
N6    O84   1.300870 A    
C45   C65   1.405261 A    
C127  C135  1.447193 A    
C89   C177  1.421503 A    
C125  C133  1.448069 A    
O45   C187  1.280585 A    
C87   C175  1.408139 A    
S2    O52   1.503810 D    
O46   C188  1.271318 A    
O10   Zn5   2.104376 S    
C128  C136  1.449874 A    
N5    O82   1.300614 A    
C129  C137  1.445239 A    
O41   C183  1.272042 A    
C49   C75   1.409465 A    
O42   C184  1.266915 A    
C25   C27   1.430285 A    
C15   C56   1.451394 S    
C132  C140  1.447360 A    
O35   C183  1.238242 A    
C31   S2    1.786732 S    
O15   C15   1.244694 A    
C111  C119  1.382202 A    
C155  H19   1.078505 S    
C120  C128  1.392022 A    
C107  C147  1.408296 A    
C59   C64   1.378146 A    
C153  C161  1.392508 A    
S7    O67   1.502360 D    
C167  H31   1.072658 S    
C56   C61   1.369524 A    
C88   C96   1.428200 A    
C79   C100  1.414623 A    
C115  C182  1.470212 S    
C102  C150  1.409690 A    
O19   C11   1.302316 A    
C136  C168  1.413834 A    
C89   C97   1.423540 A    
C106  C154  1.398822 A    
C159  H23   1.069651 S    
C45   C71   1.414040 A    
C11   C60   1.453147 S    
C140  C172  1.409023 A    
O22   Zn6   2.021125 S    
S3    O55   1.500423 D    
O3    Zn3   2.040820 S    
O27   Zn8   2.094087 S    
C60   C63   1.370978 A    
C157  H21   1.070685 S    
N3    O77   1.303074 A    
O32   Zn3   2.094087 S    
C151  H15   1.082613 S    
S1    O49   1.503430 D    
C82   C90   1.423490 A    
C149  H13   1.082943 S    
C110  C118  1.382067 A    
C37   C41   1.406324 A    
C139  C147  1.410866 A    
C21   C72   1.401844 A    
C155  C163  1.391364 A    
O15   Zn4   2.096430 S    
C97   C158  1.402612 A    
C153  H17   1.081346 S    
O22   C14   1.292560 A    
C41   C65   1.415380 A    
C43   C67   1.411980 A    
C2    C126  1.470728 S    
C64   H4    1.084168 S    
O36   Zn11  1.988984 S    
C106  C114  1.421512 A    
O48   Zn9   2.003373 S    
C82   C93   1.413921 A    
S6    O64   1.503019 D    
C72   H8    1.076107 S    
C92   C180  1.422772 A    
C17   C25   1.433974 A    
C78   C142  1.440426 A    
C76   H12   1.075658 S    
C27   S6    1.802451 S    
C80   C88   1.409847 A    
C81   C89   1.408598 A    
C90   C98   1.436003 A    
O18   C10   1.288593 A    
C84   C92   1.427546 A    
O51   H37   0.990588 S    
O66   H42   0.990831 S    
O38   Zn10  1.996093 S    
O39   C187  1.228598 A    
S12   O99   1.503363 D    
C105  C145  1.405896 A    
C113  C184  1.470045 S    
C48   C70   1.416376 A    
N1    O73   1.302973 A    
S14   O105  1.503430 D    
C114  C183  1.465207 S    
C94   C161  1.406812 A    
C103  C143  1.408775 A    
O28   C4    1.310134 A    
C160  H24   1.077834 S    
S5    O61   1.503430 D    
C169  C177  1.405090 A    
C80   C99   1.420760 A    
C81   C94   1.419495 A    
C167  C175  1.387482 A    
C7    C131  1.486095 S    
C8    C132  1.466457 S    
S6    O66   1.680779 S    
C26   C28   1.412164 A    
N7    O85   1.302897 A    
C16   C55   1.463170 S    
O100  H48   0.990419 S    
C50   C68   1.398066 A    
S16   O110  1.502278 D    
C156  H20   1.081760 S    
O1    C1    1.250142 A    
C108  C148  1.412351 A    
C135  C167  1.415252 A    
C87   C95   1.422704 A    
C133  C165  1.413645 A    
O4    Zn4   2.040820 S    
O18   Zn2   2.021125 S    
C42   C66   1.405980 A    
O5    Zn5   2.040710 S    
C21   C39   1.410240 A    
S1    O51   1.679941 S    
C172  C180  1.396479 A    
N4    O80   1.299819 A    
S15   O108  1.503988 D    
O14   Zn1   2.104376 S    
C113  C121  1.393883 A    
O38   C186  1.237450 A    
C46   C72   1.410648 A    
C29   C31   1.419666 A    
C46   C54   1.423965 A    
C23   C70   1.401658 A    
C18   C26   1.414485 A    
C173  S9    1.777915 S    
C178  S14   1.774450 S    
O11   C11   1.249238 A    
S4    O59   1.501082 D    
C179  S15   1.783736 S    
O32   C8    1.297238 A    
C156  C164  1.390337 A    
C150  C158  1.392155 A    
C13   C54   1.459574 S    
O28   Zn7   2.094087 S    
O26   C2    1.298634 A    
S3    O57   1.674942 S    
O29   Zn2   2.094303 S    
C61   H1    1.085575 S    
S7    O68   1.503253 D    
C98   C157  1.410776 A    
C28   S5    1.779387 S    
N2    O76   1.300745 A    
C95   C164  1.410340 A    
C49   C57   1.427912 A    
C174  S10   1.781875 S    
C102  C142  1.411947 A    
O69   H43   0.990604 S    
C171  H35   1.077875 S    
S5    O63   1.677209 S    
C78   C97   1.417515 A    
C170  H34   1.075923 S    
O37   C185  1.230213 A    
C162  H26   1.073121 S    
O48   C186  1.273892 A    
N3    O78   1.300886 A    
C104  C112  1.431759 A    
O106  H50   0.990426 S    
C116  C181  1.468869 S    
S10   O93   1.504087 D    
O16   C16   1.262608 A    
C104  C152  1.413902 A    
O26   Zn5   2.094303 S    
O63   H41   0.990745 S    
C52   C60   1.432968 A    
S13   O101  1.503332 D    
C23   C37   1.401236 A    
C21   C29   1.426275 A    
C82   C146  1.434786 A    
C24   C69   1.404015 A    
C135  C143  1.410443 A    
O30   Zn1   2.094303 S    
C133  C141  1.409932 A    
C40   C41   1.408810 A    
C131  C139  1.446251 A    
C77   C141  1.434991 A    
S4    O60   1.681032 S    
C111  C186  1.468737 S    
S10   O94   1.682716 S    
C49   C67   1.405551 A    
O33   C181  1.234029 A    
C180  S16   1.774297 S    
C51   C59   1.428519 A    
S8    O70   1.503301 D    
C77   C98   1.417048 A    
O20   Zn4   2.009390 S    
O21   Zn5   2.021125 S    
N8    O87   1.302815 A    
C14   C53   1.444264 S    
C122  N6    1.441007 S    
C20   C34   1.412732 A    
O40   C188  1.238887 A    
O31   C7    1.307641 A    
C62   H2    1.084054 S    
S2    O53   1.501957 D    
C24   C32   1.431815 A    
O17   C9    1.290536 A    
C84   C95   1.414572 A    
C70   H6    1.077520 S    
O19   Zn3   2.009390 S    
C136  C144  1.414503 A    
S9    O90   1.503393 D    
C83   C96   1.419134 A    
O25   C1    1.293869 A    
C80   C144  1.435473 A    
C9    C58   1.452029 S    
C30   C32   1.421173 A    
C74   H10   1.077974 S    
O30   C6    1.291448 A    
O1    Zn1   2.040710 S    
C58   C64   1.380803 A    
C121  N5    1.439521 S    
