data_str_m12_o22_o22_f0_bcu.sym.155
_audit_creation_date              2013-03-05T15:48:50-0500
_audit_creation_method            fapswitch 2.2
_symmetry_space_group_name_H-M    P1
_symmetry_Int_Tables_number       1
_space_group_crystal_system       triclinic
_cell_length_a                    17.560499
_cell_length_b                    24.483313
_cell_length_c                    14.983726
_cell_angle_alpha                 89.990319
_cell_angle_beta                  126.116849
_cell_angle_gamma                 90.108974
_cell_volume                      5204.01497383

loop_
_atom_site_label
_atom_site_type_symbol
_atom_site_description
_atom_site_fract_x
_atom_site_fract_y
_atom_site_fract_z
_atom_type_partial_charge
C1    C     C_R   0.904728 0.874391 0.093597 -0.200533
C2    C     C_R   0.905113 0.127260 0.092665 -0.185012
C3    C     C_R   0.404722 0.374398 0.093596 -0.200481
C4    C     C_R   0.405102 0.627242 0.092668 -0.184780
H1    H     H_    0.937004 0.868297 0.179509 0.193795
H2    H     H_    0.937399 0.134907 0.178430 0.193244
H3    H     H_    0.436995 0.368307 0.179508 0.193786
H4    H     H_    0.437387 0.634899 0.178430 0.193222
N1    N     N_R   0.950530 0.896220 0.057200 -0.075856
N2    N     N_R   0.950530 0.103780 0.057200 -0.077959
N3    N     N_R   0.450530 0.396220 0.057200 -0.075861
N4    N     N_R   0.450530 0.603780 0.057200 -0.078021
C5    C     C_R   0.816782 0.132541 0.908110 0.575080
C6    C     C_R   0.813845 0.870076 0.909015 0.584613
C7    C     C_R   0.316752 0.632513 0.908117 0.574308
C8    C     C_R   0.313838 0.370084 0.909014 0.584614
N5    N     N_R   0.893330 0.103780 0.942800 -0.109616
N6    N     N_R   0.893330 0.896220 0.942800 -0.100881
N7    N     N_R   0.393330 0.603780 0.942800 -0.109618
N8    N     N_R   0.393330 0.396220 0.942800 -0.100886
C9    C     C_R   0.747696 0.955110 0.691297 0.008164
C10   C     C_R   0.745530 0.044790 0.692856 -0.046324
C11   C     C_R   0.247701 0.455112 0.691296 0.008180
C12   C     C_R   0.245536 0.544795 0.692856 -0.046591
H5    H     H_    0.739592 0.914621 0.659625 0.109924
H6    H     H_    0.732161 0.085595 0.663200 0.112467
H7    H     H_    0.239606 0.414622 0.659624 0.109891
H8    H     H_    0.232176 0.585604 0.663205 0.112528
N9    N     N_R   0.818150 0.971400 0.792440 -0.037483
N10   N     N_R   0.818150 0.028600 0.792440 -0.048543
N11   N     N_R   0.318150 0.471400 0.792440 -0.037473
N12   N     N_R   0.318150 0.528600 0.792440 -0.048536
C13   C     C_R   0.049062 0.045662 0.304701 -0.087079
C14   C     C_R   0.049360 0.954605 0.305075 -0.106985
C15   C     C_R   0.549068 0.545662 0.304705 -0.086839
C16   C     C_R   0.549365 0.454605 0.305078 -0.106947
H9    H     H_    0.062317 0.087851 0.330709 0.102453
H10   H     H_    0.062867 0.912545 0.331734 0.111488
H11   H     H_    0.562326 0.587850 0.330713 0.102338
H12   H     H_    0.562872 0.412545 0.331738 0.111475
N13   N     N_R   0.025710 0.028600 0.207560 -0.033723
N14   N     N_R   0.025710 0.971400 0.207560 -0.033699
N15   N     N_R   0.525710 0.528600 0.207560 -0.033701
N16   N     N_R   0.525710 0.471400 0.207560 -0.033688
C17   C     C_R   0.815647 0.859023 0.002743 -0.076519
C18   C     C_R   0.817285 0.143831 0.000408 -0.069617
C19   C     C_R   0.315639 0.359032 0.002742 -0.076454
C20   C     C_R   0.317261 0.643799 0.000416 -0.068584
C21   C     C_R   0.701171 0.999936 0.627581 -0.113682
C22   C     C_R   0.201178 0.499940 0.627581 -0.113600
C23   C     C_R   0.065466 0.000205 0.368049 -0.032273
C24   C     C_R   0.565476 0.500205 0.368056 -0.032300
C25   C     C_R   0.267663 0.954079 0.246513 -0.131263
C26   C     C_R   0.267976 0.045842 0.246837 -0.132053
C27   C     C_R   0.767666 0.454079 0.246529 -0.131277
C28   C     C_R   0.767979 0.545842 0.246851 -0.132060
H13   H     H_    0.288492 0.911757 0.261097 0.097026
H14   H     H_    0.289323 0.088127 0.261975 0.101436
H15   H     H_    0.788490 0.411756 0.261111 0.097081
H16   H     H_    0.789329 0.588127 0.261995 0.101471
N17   N     N_R   0.181850 0.971400 0.207560 -0.038213
N18   N     N_R   0.181850 0.028600 0.207560 -0.038863
N19   N     N_R   0.681850 0.471400 0.207560 -0.038227
N20   N     N_R   0.681850 0.528600 0.207560 -0.038874
C29   C     C_R   0.020239 0.046087 0.752689 -0.137194
C30   C     C_R   0.020194 0.954282 0.752349 -0.138105
C31   C     C_R   0.520248 0.546087 0.752699 -0.137179
C32   C     C_R   0.520205 0.454281 0.752361 -0.138124
H17   H     H_    0.026084 0.088464 0.737967 0.094315
H18   H     H_    0.025424 0.912111 0.736037 0.097096
H19   H     H_    0.526100 0.588463 0.737986 0.094307
H20   H     H_    0.525442 0.412110 0.736059 0.097089
N21   N     N_R   0.974290 0.028600 0.792440 -0.045203
N22   N     N_R   0.974290 0.971400 0.792440 -0.045903
N23   N     N_R   0.474290 0.528600 0.792440 -0.045184
N24   N     N_R   0.474290 0.471400 0.792440 -0.045896
C33   C     C_R   0.056387 0.848068 0.908563 -0.191429
C34   C     C_R   0.055115 0.153044 0.910048 -0.176696
C35   C     C_R   0.556355 0.348061 0.908567 -0.191467
C36   C     C_R   0.555100 0.653047 0.910047 -0.176691
H21   H     H_    0.017250 0.836901 0.822766 0.110618
H22   H     H_    0.013999 0.165699 0.824755 0.096287
H23   H     H_    0.517187 0.336891 0.822769 0.110692
H24   H     H_    0.513967 0.665705 0.824754 0.096295
N25   N     N_R   0.049470 0.896220 0.942800 -0.038370
N26   N     N_R   0.049470 0.103780 0.942800 -0.039550
N27   N     N_R   0.549470 0.396220 0.942800 -0.038359
N28   N     N_R   0.549470 0.603780 0.942800 -0.039532
C37   C     C_R   0.145610 0.152558 0.093272 -0.156261
C38   C     C_R   0.144911 0.847213 0.091851 -0.160248
C39   C     C_R   0.645602 0.652560 0.093271 -0.156297
C40   C     C_R   0.644895 0.347211 0.091854 -0.160076
H25   H     H_    0.187694 0.164475 0.179139 0.101597
H26   H     H_    0.186743 0.834433 0.177223 0.100753
H27   H     H_    0.687688 0.664475 0.179138 0.101613
H28   H     H_    0.686747 0.334441 0.177233 0.100737
N29   N     N_R   0.106670 0.103780 0.057200 -0.033528
N30   N     N_R   0.106670 0.896220 0.057200 -0.032895
N31   N     N_R   0.606670 0.603780 0.057200 -0.033528
N32   N     N_R   0.606670 0.396220 0.057200 -0.032896
Ni1   Ni    Ni4+2 0.065600 0.934400 0.131190 0.215939
Ni2   Ni    Ni4+2 0.065600 0.065600 0.131190 0.214265
Ni3   Ni    Ni4+2 0.565600 0.434400 0.131190 0.215961
Ni4   Ni    Ni4+2 0.565600 0.565600 0.131190 0.214266
Ni5   Ni    Ni4+2 0.934400 0.065600 0.868810 0.204409
Ni6   Ni    Ni4+2 0.934400 0.934400 0.868810 0.209434
Ni7   Ni    Ni4+2 0.434400 0.565600 0.868810 0.204408
Ni8   Ni    Ni4+2 0.434400 0.434400 0.868810 0.209443
C41   C     C_R   0.323946 0.999914 0.272274 -0.001901
C42   C     C_R   0.823950 0.499914 0.272297 -0.001901
C43   C     C_R   0.050056 0.000300 0.726294 0.007048
C44   C     C_R   0.550069 0.500299 0.726309 0.007029
C45   C     C_R   0.112903 0.815620 0.000262 0.077785
C46   C     C_R   0.112944 0.185036 0.002949 0.060157
C47   C     C_R   0.612869 0.315613 0.000267 0.077344
C48   C     C_R   0.612927 0.685040 0.002948 0.060112
C49   C     C_3   0.117070 0.052837 0.538851 -0.387039
C50   C     C_3   0.966180 0.997657 0.429377 -0.346165
C51   C     C_3   0.617070 0.552840 0.538853 -0.387089
C52   C     C_3   0.466198 0.497646 0.429394 -0.345962
H29   H     H_    0.191316 0.055636 0.566583 0.168919
H30   H     H_    0.931417 0.959840 0.380294 0.206241
H31   H     H_    0.691317 0.555646 0.566589 0.168920
H32   H     H_    0.431440 0.459828 0.380309 0.206272
H33   H     H_    0.079459 0.089953 0.489528 0.177163
H34   H     H_    0.925744 0.032926 0.374762 0.216656
H35   H     H_    0.579451 0.589952 0.489520 0.177090
H36   H     H_    0.425760 0.532914 0.374785 0.216861
C53   C     C_3   0.114244 0.052552 0.639483 -0.391969
C54   C     C_3   0.961917 0.998429 0.527753 -0.394788
C55   C     C_3   0.614238 0.552557 0.639480 -0.392014
C56   C     C_3   0.461935 0.498413 0.527769 -0.394850
H37   H     H_    0.077549 0.090236 0.635974 0.155766
H38   H     H_    0.920522 0.034617 0.521188 0.173332
H39   H     H_    0.577522 0.590236 0.635952 0.155747
H40   H     H_    0.420521 0.534593 0.521196 0.173352
H41   H     H_    0.187162 0.054056 0.717131 0.168470
H42   H     H_    0.923528 0.961369 0.524680 0.171826
H43   H     H_    0.687153 0.554074 0.717130 0.168414
H44   H     H_    0.423564 0.461345 0.524705 0.171853
H45   H     H_    0.198951 0.951597 0.573303 0.169303
H46   H     H_    0.093073 0.911305 0.498355 0.177871
H47   H     H_    0.698980 0.451608 0.573322 0.169292
H48   H     H_    0.593112 0.411306 0.498386 0.177846
H49   H     H_    0.192147 0.951070 0.722043 0.169264
H50   H     H_    0.086159 0.911266 0.642019 0.159332
H51   H     H_    0.692184 0.451088 0.722070 0.169248
H52   H     H_    0.586213 0.411268 0.642067 0.159301
C57   C     C_3   0.124206 0.950241 0.544102 -0.381994
C58   C     C_3   0.624237 0.450245 0.544126 -0.381939
C59   C     C_3   0.069632 0.000241 0.468911 0.342919
C60   C     C_3   0.569647 0.500240 0.468923 0.342765
C61   C     C_3   0.062675 0.000371 0.637480 0.360982
C62   C     C_3   0.562690 0.500370 0.637495 0.361005
C63   C     C_3   0.119637 0.950133 0.643667 -0.385873
C64   C     C_3   0.619672 0.450140 0.643696 -0.385868
C65   C     C_3   0.658250 0.190431 0.889002 0.232410
C66   C     C_3   0.651661 0.819320 0.904279 0.221031
C67   C     C_3   0.158308 0.690515 0.888922 0.232933
C68   C     C_3   0.151657 0.319325 0.904287 0.220973
H53   H     H_    0.668624 0.208689 0.829194 0.146291
H54   H     H_    0.646755 0.814326 0.828536 0.125365
H55   H     H_    0.168831 0.708990 0.829376 0.145971
H56   H     H_    0.146740 0.314349 0.828535 0.125395
C69   C     C_3   0.097126 0.732504 0.894770 -0.586761
C70   C     C_3   0.096233 0.269923 0.901916 -0.573415
C71   C     C_3   0.597171 0.232593 0.894646 -0.586119
C72   C     C_3   0.596223 0.769929 0.901921 -0.573461
H57   H     H_    0.539067 0.212953 0.892880 0.218017
H58   H     H_    0.533364 0.782746 0.897181 0.224298
H59   H     H_    0.039345 0.712685 0.893406 0.217710
H60   H     H_    0.033355 0.282726 0.897147 0.224297
H61   H     H_    0.063040 0.757685 0.819068 0.156822
H62   H     H_    0.070467 0.245835 0.826142 0.148372
H63   H     H_    0.563489 0.257844 0.819068 0.156361
H64   H     H_    0.570422 0.745842 0.826136 0.148364
H65   H     H_    0.330761 0.746277 0.971295 0.156405
H66   H     H_    0.301166 0.257305 0.936148 0.144034
H67   H     H_    0.830137 0.246346 0.970528 0.156145
H68   H     H_    0.801177 0.757296 0.936161 0.143993
H69   H     H_    0.228830 0.811641 0.940533 0.164195
H70   H     H_    0.224065 0.186517 0.941166 0.154599
H71   H     H_    0.729022 0.311890 0.941057 0.164024
H72   H     H_    0.724035 0.686520 0.941139 0.154575
C73   C     C_3   0.310913 0.740021 0.028021 -0.453092
C74   C     C_3   0.301047 0.261723 0.009330 -0.435605
C75   C     C_3   0.810798 0.240064 0.027721 -0.451956
C76   C     C_3   0.801044 0.761715 0.009334 -0.435661
C77   C     C_3   0.740354 0.176756 0.096222 0.279120
C78   C     C_3   0.756623 0.819208 0.114283 0.278329
C79   C     C_3   0.240140 0.676693 0.096056 0.279043
C80   C     C_3   0.256624 0.319209 0.114287 0.278355
C81   C     C_3   0.757709 0.185312 0.004473 0.047795
C82   C     C_3   0.757566 0.816888 0.008977 0.038432
C83   C     C_3   0.257692 0.685283 0.004476 0.048074
C84   C     C_3   0.257564 0.316893 0.008979 0.038375
H73   H     H_    0.692645 0.141337 0.071931 0.141218
H74   H     H_    0.724249 0.858518 0.112214 0.132969
H75   H     H_    0.192042 0.641446 0.071388 0.141342
H76   H     H_    0.224253 0.358519 0.112225 0.132995
C85   C     C_3   0.160467 0.766367 0.002140 0.302291
C86   C     C_3   0.161009 0.234817 0.006221 0.301792
C87   C     C_3   0.660445 0.266368 0.002133 0.302149
C88   C     C_3   0.660997 0.734818 0.006218 0.301847
C89   C     C_3   0.249722 0.787411 0.014741 -0.378236
C90   C     C_3   0.247068 0.214273 0.011906 -0.348636
C91   C     C_3   0.749785 0.287430 0.014971 -0.377354
C92   C     C_3   0.747049 0.714269 0.011891 -0.348668
C93   C     C_3   0.189656 0.727791 0.099716 -0.517630
C94   C     C_3   0.194377 0.271869 0.107566 -0.492159
C95   C     C_3   0.689438 0.227721 0.099538 -0.516619
C96   C     C_3   0.694377 0.771869 0.107569 -0.492187
H77   H     H_    0.626077 0.214742 0.094204 0.157201
H78   H     H_    0.632145 0.788851 0.100203 0.169726
H79   H     H_    0.126438 0.714967 0.094826 0.157087
H80   H     H_    0.132139 0.288850 0.100187 0.169778
H81   H     H_    0.236692 0.749726 0.179355 0.208019
H82   H     H_    0.234353 0.248140 0.185489 0.193593
H83   H     H_    0.736114 0.249640 0.179268 0.207574
H84   H     H_    0.734359 0.748138 0.185489 0.193621
H85   H     H_    0.378417 0.740635 0.112009 0.229992
H86   H     H_    0.376632 0.258914 0.080176 0.224492
H87   H     H_    0.878580 0.240678 0.111452 0.229782
H88   H     H_    0.876625 0.758902 0.080190 0.224494
H89   H     H_    0.292382 0.814722 0.087981 0.177826
H90   H     H_    0.295156 0.190461 0.089113 0.190703
H91   H     H_    0.792539 0.314539 0.088531 0.178001
H92   H     H_    0.795132 0.690449 0.089088 0.190684
C97   C     C_3   0.475577 0.948225 0.355511 -0.384786
C98   C     C_3   0.476275 0.050685 0.354625 -0.381212
C99   C     C_3   0.975568 0.448211 0.355561 -0.384730
C100  C     C_3   0.976282 0.550672 0.354606 -0.381180
H93   H     H_    0.443448 0.910147 0.359795 0.155572
H94   H     H_    0.443977 0.089161 0.356624 0.163479
H95   H     H_    0.943429 0.410143 0.359860 0.155659
H96   H     H_    0.943999 0.589155 0.356601 0.163556
H97   H     H_    0.468314 0.947359 0.276568 0.166401
H98   H     H_    0.470125 0.050375 0.276346 0.166304
H99   H     H_    0.968313 0.447329 0.276624 0.166426
H100  H     H_    0.970113 0.550346 0.276315 0.166274
C101  C     C_3   0.580632 0.948321 0.454160 -0.397187
C102  C     C_3   0.580816 0.051020 0.454297 -0.390259
C103  C     C_3   0.080618 0.448303 0.454217 -0.397191
C104  C     C_3   0.080833 0.551002 0.454258 -0.390156
H101  H     H_    0.625324 0.947831 0.424015 0.166775
H102  H     H_    0.626385 0.052002 0.425353 0.164893
H103  H     H_    0.125317 0.447777 0.424083 0.166784
H104  H     H_    0.126385 0.551947 0.425289 0.164918
H105  H     H_    0.595078 0.910237 0.502065 0.155549
H106  H     H_    0.594098 0.089111 0.501765 0.169736
H107  H     H_    0.095037 0.410235 0.502156 0.155624
H108  H     H_    0.094149 0.589110 0.501697 0.169814
H109  H     H_    0.401317 0.964027 0.475809 0.170930
H110  H     H_    0.403526 0.037292 0.476162 0.179980
H111  H     H_    0.901338 0.464063 0.475867 0.170911
H112  H     H_    0.903526 0.537328 0.476156 0.180056
H113  H     H_    0.554921 0.962331 0.618862 0.204215
H114  H     H_    0.556207 0.035573 0.621246 0.220798
H115  H     H_    0.054938 0.462404 0.618941 0.204194
H116  H     H_    0.056220 0.535648 0.621217 0.220722
C105  C     C_3   0.437104 0.000179 0.470533 -0.408378
C106  C     C_3   0.937114 0.500211 0.470557 -0.408254
C107  C     C_3   0.426224 0.999746 0.360050 0.356017
C108  C     C_3   0.926227 0.499747 0.360070 0.355895
C109  C     C_3   0.603459 0.999649 0.527079 0.348643
C110  C     C_3   0.103464 0.499654 0.527088 0.348591
C111  C     C_3   0.540595 0.999380 0.567988 -0.310060
C112  C     C_3   0.040607 0.499430 0.568009 -0.310039
N33   N     N_R   0.607670 0.138240 0.843650 0.252856
O1    O     O_R   0.579722 0.123099 0.745429 -0.380615
O2    O     O_R   0.577705 0.110962 0.891883 -0.404772
N34   N     N_R   0.606077 0.871526 0.895008 0.245148
O3    O     O_R   0.592596 0.907614 0.823259 -0.361741
O4    O     O_R   0.569623 0.880135 0.948306 -0.420806
N35   N     N_R   0.107731 0.638367 0.842999 0.253082
O5    O     O_R   0.079020 0.623806 0.744207 -0.380648
O6    O     O_R   0.078497 0.610559 0.891439 -0.404462
N36   N     N_R   0.106068 0.371525 0.895047 0.245147
O7    O     O_R   0.092628 0.407639 0.823359 -0.361712
O8    O     O_R   0.069583 0.380107 0.948319 -0.420784
O9    O     O_3   0.754067 0.152483 0.801716 -0.669972
C113  C     C_3   0.799630 0.175083 0.757313 0.145082
H117  H     H_    0.746986 0.174952 0.666035 0.149752
H118  H     H_    0.859767 0.150176 0.774948 0.079597
C114  C     C_3   0.828913 0.234625 0.792028 -0.354234
H119  H     H_    0.772452 0.256518 0.789759 0.214932
H120  H     H_    0.895372 0.235860 0.877080 0.186687
C115  C     C_3   0.844174 0.264038 0.713790 -0.952453
H121  H     H_    0.896572 0.241937 0.708625 0.253820
H122  H     H_    0.870018 0.306186 0.744169 0.286301
H123  H     H_    0.776759 0.266695 0.629760 0.270377
O10   O     O_3   0.737645 0.866005 0.799214 -0.667300
C116  C     C_3   0.741891 0.819382 0.745320 0.100365
H124  H     H_    0.684760 0.824362 0.655809 0.151839
H125  H     H_    0.723402 0.781355 0.768157 0.095549
C117  C     C_3   0.835018 0.811701 0.759061 -0.399156
H126  H     H_    0.856308 0.850679 0.741894 0.204471
H127  H     H_    0.890564 0.798553 0.845000 0.198515
C118  C     C_3   0.825315 0.767963 0.680302 -0.929104
H128  H     H_    0.806280 0.728084 0.697684 0.269110
H129  H     H_    0.893123 0.763357 0.691151 0.266035
H130  H     H_    0.770329 0.779743 0.593212 0.264214
O11   O     O_3   0.254017 0.652464 0.801738 -0.669728
C119  C     C_3   0.299572 0.675106 0.757360 0.145589
H131  H     H_    0.246904 0.675032 0.666086 0.149830
H132  H     H_    0.359671 0.650191 0.774897 0.079407
C120  C     C_3   0.328952 0.734621 0.792270 -0.354381
H133  H     H_    0.272592 0.756504 0.790223 0.214898
H134  H     H_    0.395477 0.735786 0.877272 0.186631
C121  C     C_3   0.344113 0.764121 0.714024 -0.952386
H135  H     H_    0.396446 0.742050 0.708695 0.253825
H136  H     H_    0.370000 0.806251 0.744516 0.286311
H137  H     H_    0.276650 0.766830 0.630050 0.270389
O12   O     O_3   0.237641 0.366008 0.799211 -0.667332
C122  C     C_3   0.241889 0.319380 0.745327 0.100376
H138  H     H_    0.184788 0.324366 0.655807 0.151861
H139  H     H_    0.223361 0.281359 0.768137 0.095611
C123  C     C_3   0.335036 0.311680 0.759126 -0.399139
H140  H     H_    0.356318 0.350647 0.741911 0.204462
H141  H     H_    0.390567 0.298559 0.845090 0.198516
C124  C     C_3   0.325383 0.267906 0.680457 -0.929239
H142  H     H_    0.306309 0.228045 0.697852 0.269167
H143  H     H_    0.393227 0.263272 0.691395 0.265979
H144  H     H_    0.270444 0.279666 0.593339 0.264290
N37   N     N_R   0.825092 0.165160 0.207731 0.224188
O13   O     O_R   0.888282 0.202682 0.266590 -0.450942
O14   O     O_R   0.832142 0.118571 0.253807 -0.440367
N38   N     N_R   0.849613 0.816740 0.221760 0.222160
O15   O     O_R   0.900818 0.772731 0.253830 -0.433230
O16   O     O_R   0.874540 0.855624 0.293379 -0.451728
N39   N     N_R   0.324684 0.664755 0.207493 0.224284
O17   O     O_R   0.388155 0.702068 0.266860 -0.451371
O18   O     O_R   0.331304 0.618049 0.252971 -0.439878
N40   N     N_R   0.349616 0.316737 0.221761 0.222153
O19   O     O_R   0.400818 0.272727 0.253821 -0.433285
O20   O     O_R   0.374546 0.355617 0.293389 -0.451709

loop_
_geom_bond_atom_site_label_1
_geom_bond_atom_site_label_2
_geom_bond_distance
_ccdc_geom_bond_type
C99   C108  1.555805 S    
N23   Ni7   1.889035 S    
H112  C106  1.114069 S    
C14   N14   1.327245 A    
C35   N27   1.319789 A    
C113  H117  1.111148 S    
C101  H101  1.112662 S    
N4    Ni4   1.884667 S    
C27   H15   1.078109 S    
H109  C105  1.114034 S    
C70   C86   1.543619 S    
C102  C109  1.555474 S    
C78   C96   1.553653 S    
C121  H135  1.109647 S    
C119  C120  1.530458 S    
C88   C92   1.547655 S    
H110  C105  1.114069 S    
N34   O3    1.301120 A    
C47   C87   1.459013 S    
C90   H90   1.114139 S    
C45   C85   1.458988 S    
C4    N4    1.323028 A    
C68   C84   1.576151 S    
C73   H85   1.109251 S    
C75   C81   1.549192 S    
C54   H38   1.114092 S    
C73   C83   1.549421 S    
C33   C45   1.378060 A    
C48   C88   1.465474 S    
C6    C17   1.412113 A    
N21   N22   1.400446 A    
C121  H136  1.110348 S    
N3    N8    1.384722 A    
C70   H62   1.111413 S    
C52   C60   1.544701 S    
C115  H123  1.110901 S    
N2    Ni2   1.884667 S    
C101  H105  1.111318 S    
C96   H84   1.108434 S    
O12   C122  1.425582 S    
C9    N9    1.332082 A    
C11   N11   1.332061 A    
N23   N24   1.400446 A    
C12   N12   1.329802 A    
C58   C60   1.554837 S    
C34   H22   1.078680 S    
O11   C119  1.419393 S    
C32   H20   1.077549 S    
C88   C96   1.556184 S    
C102  H102  1.112686 S    
C80   C94   1.553660 S    
C10   C21   1.366882 A    
C53   H37   1.109753 S    
C117  H126  1.108425 S    
N33   O2    1.300777 A    
N15   N16   1.400446 A    
C65   C81   1.580528 S    
C16   N16   1.327262 A    
C13   C23   1.378803 A    
C97   H97   1.112660 S    
C54   H42   1.113986 S    
C80   C84   1.588718 S    
C77   H73   1.106441 S    
C17   C82   1.490467 S    
C123  C124  1.526770 S    
C51   H31   1.112775 S    
C93   H81   1.109582 S    
C57   C63   1.540519 S    
C36   N28   1.327455 A    
C30   H18   1.077538 S    
C98   H94   1.109952 S    
C80   H76   1.109828 S    
N28   N31   1.384722 A    
C3    N3    1.321113 A    
H66   C74   1.103110 S    
C67   C69   1.527757 S    
C31   C44   1.390606 A    
C53   H41   1.112740 S    
C114  H120  1.110669 S    
C124  H142  1.110928 S    
C75   C91   1.514161 S    
N8    Ni8   1.887515 S    
C69   H59   1.113147 S    
N39   O18   1.300918 A    
C70   H60   1.109436 S    
C35   C47   1.378062 A    
H71   C91   1.114766 S    
C99   C103  1.540603 S    
H113  C111  1.114330 S    
C9    C21   1.366376 A    
H65   C73   1.102888 S    
C71   H57   1.113241 S    
C67   C83   1.580706 S    
C14   C23   1.378894 A    
C116  H124  1.111031 S    
C79   N39   1.468576 S    
H46   C57   1.110839 S    
C74   C84   1.551373 S    
C57   C59   1.554837 S    
C94   H80   1.113029 S    
C30   N22   1.326097 A    
C40   H28   1.080213 S    
C39   C48   1.370825 A    
C50   H30   1.113393 S    
N37   O14   1.300978 A    
N26   N29   1.384722 A    
N15   Ni4   1.887573 S    
H48   C58   1.110843 S    
H115  C112  1.114332 S    
C25   N17   1.325452 A    
C117  C118  1.526780 S    
C27   N19   1.325436 A    
C51   C55   1.537631 S    
C28   N20   1.326780 A    
H116  C112  1.112971 S    
C49   C53   1.537629 S    
C104  C110  1.555468 S    
C16   C24   1.378893 A    
C119  H132  1.109237 S    
C33   N25   1.319843 A    
C44   C62   1.472326 S    
C87   C95   1.552428 S    
C7    C20   1.405213 A    
C8    C19   1.412114 A    
C85   C93   1.552496 S    
N16   Ni3   1.889037 S    
C12   C22   1.366888 A    
C103  H107  1.111329 S    
C74   C90   1.512792 S    
C36   C48   1.383246 A    
N40   O19   1.301745 A    
C72   C88   1.543613 S    
H70   C90   1.114866 S    
C115  H122  1.110344 S    
N17   Ni1   1.880663 S    
N6    Ni6   1.887515 S    
N9    N10   1.400446 A    
C98   C102  1.538988 S    
C43   C61   1.472300 S    
N21   Ni5   1.889035 S    
N11   N12   1.400446 A    
C7    O11   1.387312 S    
C56   H40   1.114090 S    
C124  H144  1.110826 S    
C65   N33   1.472391 S    
C49   C59   1.554878 S    
C109  C111  1.546647 S    
C110  C112  1.546669 S    
C79   C93   1.554230 S    
C68   C70   1.538269 S    
C20   C83   1.486129 S    
C117  H127  1.110654 S    
C31   N23   1.324505 A    
N25   Ni6   1.884668 S    
N14   Ni1   1.889037 S    
C71   H63   1.107241 S    
N27   N32   1.384722 A    
C51   C60   1.554877 S    
N20   Ni4   1.884213 S    
C9    H5    1.071532 S    
C122  C123  1.535023 S    
C100  C108  1.553881 S    
C55   C62   1.554576 S    
C12   H8    1.062337 S    
N38   O15   1.301746 A    
C32   N24   1.326109 A    
C95   H83   1.109605 S    
C113  H118  1.109210 S    
C5    N5    1.323915 A    
C120  C121  1.527745 S    
N10   Ni5   1.880664 S    
C92   H92   1.114138 S    
C53   C61   1.554576 S    
C1    C17   1.389009 A    
C75   H87   1.109291 S    
C3    C19   1.389012 A    
C67   H55   1.108460 S    
C37   H25   1.079365 S    
N17   N18   1.400446 A    
C118  H130  1.110827 S    
C79   C83   1.587594 S    
C55   H43   1.112740 S    
C39   H27   1.079364 S    
N19   N20   1.400446 A    
C77   C81   1.587532 S    
N1    N6    1.384722 A    
C113  C114  1.530424 S    
N34   O4    1.302001 A    
C85   C89   1.551073 S    
N36   O7    1.301121 A    
C99   H95   1.110054 S    
C39   N31   1.321880 A    
C49   H33   1.111212 S    
N18   Ni2   1.884213 S    
C51   H35   1.111211 S    
N13   N14   1.400446 A    
N35   O5    1.300834 A    
C36   H24   1.078691 S    
C65   C71   1.527863 S    
C66   C72   1.538268 S    
C8    O12   1.382594 S    
C7    N7    1.323982 A    
C66   C82   1.576159 S    
C1    H1    1.068057 S    
C68   H56   1.093214 S    
C116  C117  1.535045 S    
C3    H3    1.068057 S    
C4    C20   1.393919 A    
H67   C75   1.102817 S    
C66   N34   1.471930 S    
C72   H64   1.111412 S    
C69   C85   1.549267 S    
H68   C76   1.103113 S    
H50   C63   1.110193 S    
N12   Ni7   1.880664 S    
C46   C86   1.465468 S    
C89   H89   1.114349 S    
C71   C87   1.549077 S    
C30   C43   1.391297 A    
C61   C63   1.554780 S    
C10   N10   1.329804 A    
C62   C64   1.554781 S    
N29   Ni2   1.887512 S    
C72   H58   1.109432 S    
N31   Ni4   1.887512 S    
C74   H86   1.110250 S    
C23   C59   1.469355 S    
C122  H138  1.111031 S    
N24   Ni8   1.887572 S    
C52   C56   1.519485 S    
N33   O1    1.300848 A    
C34   C46   1.383245 A    
C38   H26   1.080211 S    
C97   C107  1.555811 S    
C120  H133  1.110737 S    
C102  H106  1.110801 S    
C19   C84   1.490464 S    
C1    N1    1.321108 A    
N19   Ni3   1.880663 S    
N28   Ni7   1.881037 S    
C25   H13   1.078115 S    
C11   C22   1.366405 A    
C26   N18   1.326778 A    
N32   Ni3   1.889057 S    
C13   H9    1.079466 S    
C28   H16   1.078030 S    
C15   H11   1.079467 S    
N39   O17   1.302211 A    
C114  H119  1.110756 S    
C50   C54   1.519492 S    
C97   C101  1.540650 S    
C33   H21   1.075924 S    
C24   C60   1.469389 S    
N13   Ni2   1.887573 S    
C68   N36   1.471931 S    
C93   H79   1.113173 S    
H51   C64   1.112697 S    
C91   H91   1.114377 S    
C96   H78   1.113031 S    
C103  H103  1.112664 S    
C65   H53   1.108196 S    
C78   H74   1.109822 S    
C37   C46   1.370819 A    
C76   C92   1.512794 S    
C100  C104  1.539012 S    
C52   H36   1.111980 S    
C21   C109  1.471677 S    
C56   H44   1.113984 S    
N30   Ni1   1.889057 S    
H72   C92   1.114866 S    
C13   N13   1.325583 A    
C78   N38   1.471001 S    
C35   H23   1.075905 S    
C29   H17   1.077888 S    
N4    N7    1.384722 A    
C31   H19   1.077891 S    
N37   O13   1.302212 A    
C40   C47   1.373640 A    
C104  H104  1.112689 S    
C10   H6    1.062256 S    
C77   N37   1.468669 S    
C15   C24   1.378812 A    
C25   C41   1.389732 A    
H52   C64   1.110191 S    
C121  H137  1.110899 S    
C22   C110  1.471649 S    
N11   Ni8   1.884215 S    
C6    N6    1.333410 A    
C103  C110  1.554323 S    
C100  H96   1.109958 S    
C4    H4    1.071781 S    
C5    O9    1.387346 S    
H45   C57   1.112727 S    
C2    C18   1.393938 A    
O10   C116  1.425564 S    
N35   O6    1.300613 A    
C79   H75   1.106356 S    
C105  C111  1.518918 S    
C114  C115  1.527756 S    
C55   H39   1.109752 S    
C106  C112  1.518931 S    
C5    C18   1.405281 A    
N40   O20   1.301727 A    
N2    N5    1.384722 A    
C69   H61   1.107144 S    
C29   N21   1.324499 A    
C99   H99   1.112660 S    
C38   C45   1.373663 A    
C49   H29   1.112773 S    
C29   C43   1.390595 A    
N25   N30   1.384722 A    
H47   C58   1.112729 S    
N27   Ni8   1.884668 S    
C124  H143  1.108781 S    
C123  H141  1.110653 S    
C11   H7    1.071548 S    
C41   C107  1.473400 S    
C42   C108  1.473390 S    
C8    N8    1.333418 A    
C34   N26   1.327454 A    
C76   C82   1.551359 S    
C58   C64   1.540546 S    
C97   H93   1.110059 S    
C2    H2    1.071774 S    
C86   C94   1.556188 S    
H114  C111  1.112922 S    
C28   C42   1.392164 A    
C122  H139  1.104111 S    
C73   C89   1.514298 S    
C16   H12   1.079516 S    
N38   O16   1.301728 A    
C77   C95   1.554205 S    
C105  C107  1.550568 S    
C118  H128  1.110924 S    
C78   C82   1.588723 S    
C106  C108  1.550573 S    
O9    C113  1.419412 S    
C87   C91   1.550943 S    
C26   C41   1.392169 A    
C37   N29   1.321881 A    
C120  H134  1.110664 S    
H69   C89   1.114710 S    
C123  H140  1.108430 S    
N5    Ni5   1.889057 S    
N22   Ni6   1.887572 S    
C56   C62   1.551228 S    
H111  C106  1.114035 S    
C118  H129  1.108751 S    
C76   H88   1.110247 S    
C119  H131  1.111156 S    
C95   H77   1.113189 S    
C27   C42   1.389732 A    
C6    O10   1.382573 S    
N36   O8    1.302005 A    
N9    Ni6   1.884215 S    
C98   H98   1.112714 S    
N26   Ni5   1.881037 S    
C2    N2    1.323019 A    
C15   N15   1.325596 A    
C40   N32   1.323604 A    
C18   C81   1.486190 S    
C26   H14   1.078023 S    
C98   C107  1.553877 S    
C104  H108  1.110803 S    
C14   H10   1.079512 S    
C94   H82   1.108434 S    
C67   N35   1.472408 S    
C115  H121  1.109634 S    
C116  H125  1.104106 S    
C80   N40   1.471001 S    
C54   C61   1.551239 S    
C101  C109  1.554322 S    
C50   C59   1.544714 S    
C66   H54   1.093225 S    
H49   C63   1.112698 S    
N1    Ni1   1.881038 S    
C86   C90   1.547643 S    
C100  H100  1.112713 S    
N3    Ni3   1.881038 S    
C50   H34   1.112015 S    
C38   N30   1.323627 A    
C32   C44   1.391304 A    
C52   H32   1.113392 S    
N7    Ni7   1.889057 S    
