data_str_m3_o40_o41_f0_fof.sym.19
_audit_creation_date              2012-12-10T16:37:56-0500
_audit_creation_method            fapswitch 2.2
_symmetry_space_group_name_H-M    P1
_symmetry_Int_Tables_number       1
_space_group_crystal_system       triclinic
_cell_length_a                    28.169622
_cell_length_b                    18.431697
_cell_length_c                    16.840839
_cell_angle_alpha                 89.781319
_cell_angle_beta                  61.363864
_cell_angle_gamma                 89.536209
_cell_volume                      7674.18881592

loop_
_atom_site_label
_atom_site_type_symbol
_atom_type_description
_atom_site_fract_x
_atom_site_fract_y
_atom_site_fract_z
_atom_type_partial_charge
C1    C     C_R   0.700913 0.265400 0.677206 0.958386
C2    C     C_R   0.094129 0.496692 0.518817 0.066953
C3    C     C_R   0.198502 0.204808 0.897587 0.046156
C4    C     C_R   0.613096 0.323873 0.052693 -0.174953
C5    C     C_R   0.333976 0.591974 0.019376 -0.186487
C6    C     C_R   0.382782 0.330143 0.949211 -0.176532
C7    C     C_R   0.665574 0.594245 0.982996 -0.184921
C8    C     C_R   0.113096 0.823873 0.052694 -0.174953
C9    C     C_R   0.833976 0.091974 0.019376 -0.186485
C10   C     C_R   0.882782 0.830143 0.949212 -0.176531
C11   C     C_R   0.165574 0.094246 0.982995 -0.184921
C12   C     C_R   0.642868 0.309993 0.097217 -0.188951
C13   C     C_R   0.406276 0.003293 0.479695 0.066182
C14   C     C_R   0.303404 0.603852 0.975599 -0.173744
C15   C     C_R   0.352407 0.316653 0.905885 -0.188247
C16   C     C_R   0.696163 0.606669 0.026493 -0.173756
C17   C     C_R   0.142868 0.809993 0.097217 -0.188952
C18   C     C_R   0.803404 0.103852 0.975599 -0.173742
C19   C     C_R   0.852407 0.816653 0.905885 -0.188248
C20   C     C_R   0.196163 0.106669 0.026493 -0.173755
C21   C     C_R   0.731791 0.175731 0.803491 0.096172
C22   C     C_R   0.262300 0.811931 0.193760 0.108263
C23   C     C_R   0.268929 0.177924 0.196042 0.107071
C24   C     C_R   0.594129 0.996692 0.518816 0.066952
C25   C     C_R   0.733762 0.814330 0.808451 0.115834
C26   C     C_R   0.231791 0.675730 0.803491 0.096172
C27   C     C_R   0.762301 0.311932 0.193760 0.108263
C28   C     C_R   0.768929 0.677924 0.196042 0.107071
C29   C     C_R   0.233763 0.314330 0.808451 0.115834
C30   C     C_R   0.761348 0.156400 0.849259 0.035197
C31   C     C_R   0.228826 0.822123 0.153245 0.069235
C32   C     C_R   0.238964 0.158839 0.151316 0.040837
C33   C     C_R   0.766134 0.826157 0.850435 0.075531
C34   C     C_R   0.261347 0.656400 0.849259 0.035197
C35   C     C_R   0.070574 0.376077 0.584835 -0.235475
C36   C     C_R   0.728826 0.322124 0.153245 0.069234
C37   C     C_R   0.738964 0.658839 0.151316 0.040838
C38   C     C_R   0.266134 0.326157 0.850435 0.075531
C39   C     C_R   0.078984 0.092709 0.928925 0.953796
C40   C     C_R   0.925939 0.899677 0.065133 0.927924
C41   C     C_R   0.921118 0.092923 0.070933 0.952052
C42   C     C_R   0.073492 0.898897 0.935429 0.929807
C43   C     C_R   0.578984 0.592709 0.928925 0.953788
C44   C     C_R   0.425939 0.399677 0.065133 0.927925
C45   C     C_R   0.421118 0.592923 0.070933 0.952053
C46   C     C_R   0.929876 0.623724 0.413219 -0.227382
C47   C     C_R   0.573492 0.398897 0.935429 0.929808
C48   C     C_R   0.574306 0.114783 0.431640 0.114446
C49   C     C_R   0.426350 0.885065 0.566152 0.113408
C50   C     C_R   0.478243 0.120826 0.418238 0.111954
C51   C     C_R   0.522451 0.878844 0.579148 0.113683
C52   C     C_R   0.074306 0.614783 0.431640 0.114447
C53   C     C_R   0.926350 0.385065 0.566153 0.113408
C54   C     C_R   0.978243 0.620826 0.418238 0.111954
C55   C     C_R   0.022451 0.378844 0.579148 0.113684
C56   C     C_R   0.564052 0.173651 0.388636 -0.207079
C57   C     C_R   0.879743 0.387246 0.556427 -0.239641
C58   C     C_R   0.436881 0.825781 0.608073 -0.205192
C59   C     C_R   0.516147 0.177002 0.382831 -0.209737
C60   C     C_R   0.484866 0.822276 0.613396 -0.213476
C61   C     C_R   0.064052 0.673651 0.388636 -0.207079
C62   C     C_R   0.936881 0.325781 0.608074 -0.205194
C63   C     C_R   0.016147 0.677002 0.382831 -0.209737
C64   C     C_R   0.984865 0.322276 0.613396 -0.213475
C65   C     C_R   0.489224 0.060414 0.458708 0.024324
C66   C     C_R   0.511391 0.939451 0.539104 0.024884
C67   C     C_R   0.536886 0.057870 0.466506 0.028262
C68   C     C_R   0.120697 0.612833 0.442199 -0.233717
C69   C     C_R   0.463724 0.942032 0.531385 0.028318
C70   C     C_R   0.989224 0.560413 0.458708 0.024324
C71   C     C_R   0.011391 0.439451 0.539104 0.024884
C72   C     C_R   0.036886 0.557870 0.466506 0.028262
C73   C     C_R   0.963724 0.442032 0.531386 0.028318
C74   C     C_R   0.952881 0.502180 0.490548 -0.042386
C75   C     C_R   0.047654 0.497771 0.507566 -0.042730
C76   C     C_R   0.452881 0.002180 0.490548 -0.042386
C77   C     C_R   0.547654 0.997771 0.507565 -0.042730
C78   C     C_R   0.871874 0.442767 0.505353 0.005308
C79   C     C_R   0.570574 0.876077 0.584835 -0.235473
C80   C     C_R   0.128452 0.557280 0.493499 0.004792
C81   C     C_R   0.107033 0.434654 0.554121 0.037373
C82   C     C_R   0.893265 0.565316 0.444599 0.034506
C83   C     C_R   0.371874 0.942768 0.505352 0.005308
C84   C     C_R   0.628452 0.057280 0.493499 0.004793
C85   C     C_R   0.607033 0.934654 0.554121 0.037374
C86   C     C_R   0.393265 0.065316 0.444599 0.034506
C87   C     C_R   0.832581 0.439227 0.474869 -0.137070
C88   C     C_R   0.167527 0.560787 0.524550 -0.138828
C89   C     C_R   0.155766 0.434570 0.559620 -0.179605
C90   C     C_R   0.429876 0.123725 0.413219 -0.227382
C91   C     C_R   0.844296 0.565454 0.439868 -0.174536
C92   C     C_R   0.332581 0.939227 0.474869 -0.137070
C93   C     C_R   0.667527 0.060787 0.524550 -0.138828
C94   C     C_R   0.655766 0.934570 0.559620 -0.179603
C95   C     C_R   0.344296 0.065455 0.439868 -0.174536
C96   C     C_R   0.822575 0.499729 0.434788 0.023113
C97   C     C_R   0.177330 0.500297 0.564975 0.026510
C98   C     C_R   0.322575 0.999729 0.434787 0.023113
C99   C     C_R   0.677330 0.000297 0.564975 0.026509
C100  C     C_3   0.676944 0.440628 0.734597 0.103962
C101  C     C_R   0.379743 0.887246 0.556427 -0.239641
C102  C     C_3   0.671549 0.496959 0.673100 -0.705515
C103  C     C_3   0.437648 0.742957 0.189229 0.129762
C104  C     C_3   0.480460 0.735047 0.219238 -0.780723
C105  C     C_3   0.323626 0.441916 0.266906 0.113048
C106  C     C_3   0.330059 0.497094 0.327953 -0.707681
C107  C     C_3   0.562141 0.741385 0.807209 0.129418
C108  C     C_3   0.514123 0.726451 0.792065 -0.819746
C109  C     C_3   0.176945 0.940627 0.734597 0.103964
C110  C     C_3   0.171552 0.996959 0.673099 -0.705519
C111  C     C_3   0.937647 0.242958 0.189231 0.129763
C112  C     C_R   0.299684 0.735726 0.322533 0.913062
C113  C     C_R   0.620698 0.112833 0.442199 -0.233718
C114  C     C_3   0.980460 0.235047 0.219239 -0.780719
C115  C     C_3   0.823625 0.941916 0.266906 0.113050
C116  C     C_3   0.830058 0.997094 0.327953 -0.707682
C117  C     C_3   0.062147 0.241397 0.807198 0.129406
C118  C     C_3   0.014118 0.226462 0.792081 -0.819742
C119  C     C_R   0.707808 0.242403 0.968144 -0.014565
C120  C     C_R   0.267670 0.714516 0.060507 -0.016292
C121  C     C_R   0.289863 0.246695 0.033893 -0.014613
C122  C     C_R   0.729940 0.717657 0.941995 -0.016722
C123  C     C_R   0.207808 0.742402 0.968144 -0.014565
C124  C     C_R   0.767671 0.214517 0.060507 -0.016292
C125  C     C_R   0.789863 0.746695 0.033894 -0.014613
C126  C     C_R   0.229940 0.217658 0.941995 -0.016722
C127  C     C_R   0.748724 0.188519 0.934096 0.007019
C128  C     C_R   0.298836 0.266109 0.322960 0.944476
C129  C     C_R   0.228678 0.770569 0.090738 -0.015272
C130  C     C_R   0.250109 0.191868 0.067520 0.005864
C131  C     C_R   0.767508 0.774790 0.912526 -0.012886
C132  C     C_R   0.248724 0.688519 0.934096 0.007019
C133  C     C_R   0.728678 0.270570 0.090738 -0.015272
C134  C     C_R   0.750109 0.691868 0.067520 0.005863
C135  C     C_R   0.267508 0.274790 0.912526 -0.012886
C136  C     C_R   0.774101 0.168889 0.987808 0.083334
C137  C     C_R   0.193636 0.776076 0.052101 0.091998
C138  C     C_R   0.224571 0.172004 0.014280 0.084189
C139  C     C_R   0.700242 0.735671 0.677327 0.902050
C140  C     C_R   0.802595 0.781260 0.950942 0.091674
C141  C     C_R   0.274101 0.668889 0.987808 0.083334
C142  C     C_R   0.693637 0.276077 0.052101 0.091998
C143  C     C_R   0.724571 0.672004 0.014281 0.084189
C144  C     C_R   0.302595 0.281260 0.950942 0.091675
C145  C     C_R   0.635727 0.311327 0.958629 0.020945
C146  C     C_R   0.336687 0.644621 0.077452 0.010390
C147  C     C_R   0.361790 0.315672 0.042658 0.023392
C148  C     C_R   0.662379 0.646174 0.924201 0.012772
C149  C     C_R   0.135727 0.811326 0.958629 0.020945
C150  C     C_R   0.200913 0.765400 0.677206 0.958386
C151  C     C_R   0.836687 0.144621 0.077452 0.010388
C152  C     C_R   0.861789 0.815672 0.042658 0.023392
C153  C     C_R   0.162379 0.146174 0.924200 0.012768
C154  C     C_R   0.616241 0.344608 0.902673 -0.251225
C155  C     C_R   0.374601 0.640844 0.110860 -0.253359
C156  C     C_R   0.382510 0.346772 0.097975 -0.251578
C157  C     C_R   0.625116 0.641052 0.889461 -0.252985
C158  C     C_R   0.116241 0.844608 0.902673 -0.251226
C159  C     C_R   0.874601 0.140844 0.110860 -0.253360
C160  C     C_R   0.882510 0.846772 0.097975 -0.251579
C161  C     C_R   0.799684 0.235726 0.322533 0.913061
C162  C     C_R   0.125116 0.141053 0.889461 -0.252981
C163  C     C_R   0.643819 0.334543 0.810329 0.357157
C164  C     C_R   0.369028 0.685429 0.181136 0.364653
C165  C     C_R   0.355661 0.335729 0.190131 0.352389
C166  C     C_R   0.630851 0.684884 0.818234 0.369681
C167  C     C_R   0.143819 0.834543 0.810329 0.357158
C168  C     C_R   0.869028 0.185429 0.181136 0.364654
C169  C     C_R   0.855661 0.835730 0.190131 0.352390
C170  C     C_R   0.130851 0.184886 0.818235 0.369692
C171  C     C_R   0.678285 0.275355 0.775099 -0.232179
C172  C     C_R   0.798836 0.766108 0.322960 0.944476
C173  C     C_R   0.323160 0.728029 0.223785 -0.261276
C174  C     C_R   0.321291 0.276941 0.225128 -0.229166
C175  C     C_R   0.675964 0.728316 0.776339 -0.261326
C176  C     C_R   0.178285 0.775355 0.775099 -0.232179
C177  C     C_R   0.823160 0.228029 0.223785 -0.261277
C178  C     C_R   0.821291 0.776941 0.225128 -0.229166
C179  C     C_R   0.175964 0.228316 0.776339 -0.261338
C180  C     C_R   0.697028 0.237411 0.830779 -0.022437
C181  C     C_R   0.294267 0.747901 0.175866 -0.044269
C182  C     C_R   0.302408 0.240109 0.169519 -0.019182
C183  C     C_R   0.200242 0.235671 0.677327 0.902039
C184  C     C_R   0.703542 0.749436 0.825519 -0.037898
C185  C     C_R   0.197028 0.737410 0.830779 -0.022436
C186  C     C_R   0.794268 0.247901 0.175866 -0.044268
C187  C     C_R   0.802408 0.740109 0.169519 -0.019182
C188  C     C_R   0.203542 0.249436 0.825519 -0.037894
C189  C     C_R   0.695757 0.127400 0.520405 0.905067
C190  C     C_R   0.304292 0.872599 0.479385 0.890188
C191  C     C_R   0.309406 0.129973 0.462062 0.891928
C192  C     C_R   0.690616 0.870059 0.537813 0.869407
C193  C     C_R   0.195757 0.627400 0.520405 0.905066
C194  C     C_R   0.906276 0.503293 0.479695 0.066182
C195  C     C_R   0.804292 0.372599 0.479385 0.890187
C196  C     C_R   0.809406 0.629973 0.462062 0.891928
C197  C     C_R   0.190616 0.370059 0.537813 0.869404
C198  C     C_R   0.680730 0.264116 0.918624 0.025556
C199  C     C_R   0.299602 0.702717 0.104342 0.046026
C200  C     C_R   0.317386 0.268094 0.082674 0.024699
C201  C     C_R   0.698502 0.704808 0.897587 0.046155
C202  C     C_R   0.180730 0.764116 0.918624 0.025556
C203  C     C_R   0.799602 0.202717 0.104342 0.046026
C204  C     C_R   0.817386 0.768094 0.082675 0.024699
H1    H     H_    0.992515 0.275209 0.644133 0.142763
H2    H     H_    0.922341 0.669810 0.380593 0.162429
H3    H     H_    0.174743 0.896885 0.236307 0.171573
H4    H     H_    0.167390 0.131875 0.259337 0.189466
H5    H     H_    0.208650 0.060155 0.205655 0.167356
H6    H     H_    0.762648 0.935829 0.862083 0.199203
H7    H     H_    0.817945 0.903207 0.769500 0.174113
H8    H     H_    0.334191 0.631685 0.742206 0.181956
H9    H     H_    0.294300 0.558827 0.792902 0.168560
H10   H     H_    0.728318 0.431876 0.143499 0.200192
H11   H     H_    0.674743 0.396885 0.236307 0.171573
H12   H     H_    0.667390 0.631874 0.259337 0.189466
H13   H     H_    0.850147 0.345228 0.589401 0.171697
H14   H     H_    0.708651 0.560154 0.205655 0.167356
H15   H     H_    0.262648 0.435829 0.862083 0.199202
H16   H     H_    0.317946 0.403207 0.769500 0.174113
H17   H     H_    0.150221 0.655021 0.409707 0.174288
H18   H     H_    0.577979 0.829942 0.617520 0.163544
H19   H     H_    0.422341 0.169810 0.380592 0.162429
H20   H     H_    0.350147 0.845228 0.589401 0.171697
H21   H     H_    0.650221 0.155021 0.409707 0.174288
H22   H     H_    0.572867 0.345014 0.094040 0.175089
H23   H     H_    0.354333 0.540105 0.008492 0.172436
H24   H     H_    0.422350 0.351967 0.906764 0.180297
H25   H     H_    0.008769 0.723521 0.350626 0.141247
H26   H     H_    0.645891 0.542259 0.994202 0.171503
H27   H     H_    0.072867 0.845014 0.094040 0.175089
H28   H     H_    0.854333 0.040105 0.008492 0.172436
H29   H     H_    0.922350 0.851967 0.906764 0.180297
H30   H     H_    0.145891 0.042259 0.994201 0.171503
H31   H     H_    0.624829 0.323556 0.168288 0.154261
H32   H     H_    0.301318 0.559466 0.935988 0.172957
H33   H     H_    0.369572 0.331293 0.835244 0.159923
H34   H     H_    0.699020 0.562274 0.065749 0.171117
H35   H     H_    0.124828 0.823556 0.168289 0.154261
H36   H     H_    0.908565 0.281310 0.634954 0.140877
H37   H     H_    0.801318 0.059466 0.935988 0.172957
H38   H     H_    0.869572 0.831293 0.835244 0.159923
H39   H     H_    0.199019 0.062274 0.065749 0.171116
H40   H     H_    0.794866 0.541474 0.351910 0.191829
H41   H     H_    0.811067 0.455555 0.336670 0.164400
H42   H     H_    0.205120 0.458628 0.648495 0.174327
H43   H     H_    0.186602 0.544057 0.665200 0.184928
H44   H     H_    0.294866 0.041474 0.351910 0.191829
H45   H     H_    0.311067 0.955555 0.336670 0.164400
H46   H     H_    0.705120 0.958628 0.648495 0.174327
H47   H     H_    0.092571 0.717848 0.361111 0.139047
H48   H     H_    0.686602 0.044057 0.665200 0.184928
H49   H     H_    0.718920 0.418222 0.699355 0.116508
H50   H     H_    0.670256 0.468492 0.797793 0.114419
H51   H     H_    0.630307 0.521227 0.706835 0.267495
H52   H     H_    0.701608 0.540678 0.657997 0.206755
H53   H     H_    0.678955 0.471310 0.608561 0.256253
H54   H     H_    0.413007 0.792368 0.221857 0.119806
H55   H     H_    0.458675 0.749825 0.114252 0.116424
H56   H     H_    0.506179 0.686606 0.186804 0.258568
H57   H     H_    0.506417 0.783959 0.199192 0.197835
H58   H     H_    0.492515 0.775208 0.644132 0.142762
H59   H     H_    0.460826 0.728944 0.293933 0.255064
H60   H     H_    0.281506 0.420865 0.302886 0.130347
H61   H     H_    0.329991 0.470445 0.204112 0.110558
H62   H     H_    0.371504 0.519920 0.293529 0.265557
H63   H     H_    0.300333 0.541992 0.343667 0.198580
H64   H     H_    0.322887 0.470874 0.392209 0.257316
H65   H     H_    0.585104 0.787985 0.763983 0.117168
H66   H     H_    0.546069 0.756109 0.879911 0.113959
H67   H     H_    0.488351 0.683737 0.839536 0.267496
H68   H     H_    0.489618 0.776693 0.803833 0.200526
H69   H     H_    0.508769 0.223522 0.350625 0.141247
H70   H     H_    0.528659 0.707529 0.721628 0.246158
H71   H     H_    0.218921 0.918220 0.699355 0.116507
H72   H     H_    0.170258 0.968491 0.797793 0.114418
H73   H     H_    0.130310 0.021230 0.706835 0.267493
H74   H     H_    0.201612 0.040676 0.657995 0.206753
H75   H     H_    0.178955 0.971310 0.608561 0.256256
H76   H     H_    0.913006 0.292368 0.221860 0.119805
H77   H     H_    0.958674 0.249827 0.114254 0.116426
H78   H     H_    0.006180 0.186607 0.186802 0.258568
H79   H     H_    0.006416 0.283960 0.199194 0.197835
H80   H     H_    0.408565 0.781310 0.634953 0.140876
H81   H     H_    0.960826 0.228942 0.293933 0.255063
H82   H     H_    0.781506 0.920865 0.302886 0.130346
H83   H     H_    0.829991 0.970445 0.204111 0.110558
H84   H     H_    0.871503 0.019921 0.293529 0.265558
H85   H     H_    0.800333 0.041993 0.343666 0.198579
H86   H     H_    0.822886 0.970874 0.392209 0.257317
H87   H     H_    0.085114 0.287984 0.763948 0.117178
H88   H     H_    0.046086 0.256141 0.879892 0.113952
H89   H     H_    0.988343 0.183763 0.839577 0.267494
H90   H     H_    0.989620 0.276709 0.803837 0.200525
H91   H     H_    0.592571 0.217849 0.361111 0.139047
H92   H     H_    0.028643 0.207520 0.721655 0.246163
H93   H     H_    0.717438 0.076634 0.769380 0.164445
H94   H     H_    0.771521 0.118858 0.685880 0.201548
H95   H     H_    0.236250 0.877226 0.304361 0.211470
H96   H     H_    0.304993 0.867446 0.244956 0.171549
H97   H     H_    0.286812 0.078730 0.225513 0.161998
H98   H     H_    0.231939 0.118344 0.311658 0.198935
H99   H     H_    0.759550 0.878709 0.697251 0.206540
H100  H     H_    0.690943 0.867799 0.754733 0.161842
H101  H     H_    0.217438 0.576634 0.769380 0.164445
H102  H     H_    0.077979 0.329941 0.617520 0.163542
H103  H     H_    0.271522 0.618858 0.685880 0.201548
H104  H     H_    0.736250 0.377226 0.304361 0.211470
H105  H     H_    0.804993 0.367446 0.244956 0.171549
H106  H     H_    0.786813 0.578730 0.225513 0.161998
H107  H     H_    0.731940 0.618344 0.311658 0.198935
H108  H     H_    0.259550 0.378709 0.697251 0.206541
H109  H     H_    0.190943 0.367799 0.754733 0.161842
H110  H     H_    0.834191 0.131686 0.742206 0.181956
H111  H     H_    0.794300 0.058827 0.792902 0.168560
H112  H     H_    0.228318 0.931876 0.143499 0.200192
N1    N     N_3   0.791453 0.493987 0.387745 -0.411710
N2    N     N_3   0.769648 0.372875 0.239848 -0.478387
N3    N     N_3   0.771099 0.627765 0.259392 -0.455008
N4    N     N_3   0.225717 0.374333 0.761208 -0.484106
N5    N     N_3   0.807153 0.108802 0.804445 -0.480510
N6    N     N_3   0.200240 0.889737 0.166943 -0.471305
N7    N     N_3   0.194362 0.110167 0.196147 -0.480376
N8    N     N_3   0.792226 0.895005 0.838563 -0.473255
N9    N     N_3   0.307153 0.608802 0.804445 -0.480510
N10   N     N_3   0.700241 0.389737 0.166943 -0.471304
N11   N     N_3   0.694362 0.610166 0.196147 -0.480377
N12   N     N_3   0.207512 0.506422 0.613609 -0.410684
N13   N     N_3   0.292226 0.395005 0.838563 -0.473254
N14   N     N_3   0.291453 0.993987 0.387745 -0.411710
N15   N     N_3   0.707512 0.006422 0.613609 -0.410684
N16   N     N_3   0.731866 0.126599 0.737621 -0.436881
N17   N     N_3   0.269648 0.872874 0.239848 -0.478387
N18   N     N_3   0.271098 0.127765 0.259392 -0.455007
N19   N     N_3   0.725717 0.874333 0.761208 -0.484106
N20   N     N_3   0.231866 0.626599 0.737621 -0.436881
O1    O     O_R   0.746490 0.236330 0.638080 -0.644271
O2    O     O_R   0.325830 0.813840 0.483730 -0.645778
O3    O     O_R   0.325830 0.186160 0.483730 -0.629496
O4    O     O_R   0.674170 0.813840 0.516270 -0.629705
O5    O     O_R   0.174170 0.686160 0.516270 -0.642560
O6    O     O_R   0.825830 0.313840 0.483730 -0.645778
O7    O     O_R   0.825830 0.686160 0.483730 -0.629497
O8    O     O_R   0.174170 0.313840 0.516270 -0.629705
O9    O     O_R   0.739960 0.127620 0.525000 -0.605891
O10   O     O_R   0.260040 0.872380 0.475000 -0.616031
O11   O     O_R   0.260040 0.127620 0.475000 -0.613562
O12   O     O_R   0.253510 0.763670 0.361920 -0.656596
O13   O     O_R   0.739960 0.872380 0.525000 -0.622323
O14   O     O_R   0.239960 0.627620 0.525000 -0.605891
O15   O     O_R   0.760040 0.372380 0.475000 -0.616031
O16   O     O_R   0.760040 0.627620 0.475000 -0.613563
O17   O     O_R   0.239960 0.372380 0.525000 -0.622322
O18   O     O_R   0.680700 0.294870 0.629350 -0.563814
O19   O     O_R   0.319300 0.705130 0.370650 -0.568170
O20   O     O_R   0.319300 0.294870 0.370650 -0.571663
O21   O     O_R   0.680700 0.705130 0.629350 -0.572904
O22   O     O_R   0.180700 0.794870 0.629350 -0.563815
O23   O     O_R   0.253510 0.236330 0.361920 -0.629245
O24   O     O_R   0.819300 0.205130 0.370650 -0.568171
O25   O     O_R   0.819300 0.794870 0.370650 -0.571662
O26   O     O_R   0.180700 0.205130 0.629350 -0.572911
O27   O     O_R   0.062020 0.072840 0.007170 -0.641458
O28   O     O_R   0.937980 0.927160 0.992830 -0.667960
O29   O     O_R   0.937980 0.072840 0.992830 -0.644511
O30   O     O_R   0.062020 0.927160 0.007170 -0.665652
O31   O     O_R   0.562020 0.572840 0.007170 -0.641457
O32   O     O_R   0.437980 0.427160 0.992830 -0.667960
O33   O     O_R   0.437980 0.572840 0.992830 -0.644512
O34   O     O_R   0.746490 0.763670 0.638080 -0.639718
O35   O     O_R   0.562020 0.427160 0.007170 -0.665651
O36   O     O_R   0.947860 0.073950 0.109290 -0.561642
O37   O     O_R   0.052140 0.926050 0.890710 -0.567001
O38   O     O_R   0.052140 0.073950 0.890710 -0.560325
O39   O     O_R   0.947860 0.926050 0.109290 -0.570352
O40   O     O_R   0.447860 0.573950 0.109290 -0.561643
O41   O     O_R   0.552140 0.426050 0.890710 -0.567002
O42   O     O_R   0.552140 0.573950 0.890710 -0.560330
O43   O     O_R   0.447860 0.426050 0.109290 -0.570352
O44   O     O_3   0.638464 0.385162 0.753618 -0.570462
O45   O     O_R   0.246490 0.736330 0.638080 -0.644271
O46   O     O_3   0.404993 0.680429 0.215296 -0.575082
O47   O     O_3   0.361741 0.384974 0.246916 -0.572600
O48   O     O_3   0.595421 0.678855 0.783322 -0.574775
O49   O     O_3   0.138464 0.885163 0.753618 -0.570462
O50   O     O_3   0.904993 0.180429 0.215296 -0.575083
O51   O     O_3   0.861741 0.884974 0.246916 -0.572600
O52   O     O_3   0.095418 0.178859 0.783326 -0.574774
O53   O     O_R   0.753510 0.263670 0.361920 -0.656595
O54   O     O_R   0.753510 0.736330 0.361920 -0.629246
O55   O     O_R   0.246490 0.263670 0.638080 -0.639714
O56   O     O_R   0.674170 0.186160 0.516270 -0.642560
Zn1   Zn    Zn3+2 0.792340 0.208750 0.507670 0.942670
Zn2   Zn    Zn3+2 0.494040 0.500000 0.919480 0.958825
Zn3   Zn    Zn3+2 0.005960 0.000000 0.080520 0.957871
Zn4   Zn    Zn3+2 0.994040 1.000000 0.919480 0.958833
Zn5   Zn    Zn3+2 0.207660 0.791250 0.492330 0.943937
Zn6   Zn    Zn3+2 0.207660 0.208750 0.492330 0.950069
Zn7   Zn    Zn3+2 0.792340 0.791250 0.507670 0.946862
Zn8   Zn    Zn3+2 0.292340 0.708750 0.507670 0.942671
Zn9   Zn    Zn3+2 0.707660 0.291250 0.492330 0.943937
Zn10  Zn    Zn3+2 0.707660 0.708750 0.492330 0.950069
Zn11  Zn    Zn3+2 0.292340 0.291250 0.507670 0.946862
Zn12  Zn    Zn3+2 0.505960 0.500000 0.080520 0.957870

loop_
_geom_bond_atom_site_label_1
_geom_bond_atom_site_label_2
_ccdc_geom_bond_type
C166  O48   S    
C74   C194  A    
C193  O5    A    
C118  H89   S    
C150  O22   A    
H99   N19   S    
C36   C133  A    
C106  H63   S    
H3    N6    S    
C124  C133  A    
H109  N4    S    
C32   N7    S    
C50   C59   A    
O30   Zn3   S    
C22   C181  A    
C52   C61   A    
C26   C185  A    
C54   C63   A    
O20   Zn11  S    
C58   C60   A    
C102  H51   S    
C191  O11   A    
C61   C63   A    
C62   C64   A    
C131  C140  A    
C167  O49   S    
O6    Zn1   S    
C134  C143  A    
C114  H78   S    
C115  H83   S    
O15   Zn9   S    
C70   C74   A    
C4    C12   A    
C24   C85   A    
C88   C97   A    
H112  N6    S    
C125  C140  A    
C49   C69   A    
C172  O25   A    
C147  C200  A    
C100  H50   S    
O8    Zn6   S    
C158  C167  A    
C11   C20   A    
C30   N5    S    
C45   O33   A    
C127  C136  A    
C23   C182  A    
C86   C90   A    
C28   C187  A    
O28   Zn4   S    
C192  O4    A    
C179  C188  A    
C187  C204  A    
C1    C171  S    
C82   C91   A    
C51   C66   A    
O41   Zn2   S    
C52   C72   A    
C60   H58   S    
O19   Zn8   S    
C113  H21   S    
C43   O42   A    
C164  C173  A    
C47   O35   A    
C183  O55   A    
C17   H35   S    
C18   H37   S    
C47   C154  S    
O29   Zn4   S    
C117  H88   S    
O37   Zn4   S    
C161  C177  S    
C130  C138  A    
C79   C85   A    
C79   H18   S    
C110  H75   S    
C21   C30   A    
C66   C77   A    
C30   C127  A    
C9    C151  A    
C10   H29   S    
C170  O52   S    
C57   C78   A    
C108  H67   S    
C189  O56   A    
O25   Zn7   S    
C56   C59   A    
C64   H1    S    
C15   H33   S    
C8    C17   A    
C29   C188  A    
C40   O28   A    
O39   Zn3   S    
C112  O12   A    
C87   C195  S    
C90   H19   S    
C80   C88   A    
C111  H76   S    
C116  H86   S    
C84   C93   A    
C48   C67   A    
C180  C198  A    
C86   C95   A    
H48   N15   S    
C24   C77   A    
C129  C137  A    
C2    C81   A    
C17   C137  A    
H14   N11   S    
C41   O36   A    
H11   N10   S    
O7    Zn7   S    
C109  C110  S    
C55   C71   A    
H16   N13   S    
C7    H26   S    
C78   C87   A    
C20   H39   S    
C125  C204  A    
C123  C132  A    
C119  C198  A    
C67   C77   A    
C121  C130  A    
C174  C182  A    
C35   H102  S    
C133  C142  A    
C57   H13   S    
H12   N11   S    
C118  H92   S    
C78   C194  A    
H106  N3    S    
C105  H61   S    
C115  C116  S    
C120  C199  A    
C69   C76   A    
C85   C94   A    
C25   N19   S    
C22   N17   S    
C36   N10   S    
C197  O17   A    
C29   C38   A    
C107  C108  S    
C18   C136  A    
C161  O24   A    
C149  C158  A    
O13   Zn7   S    
O11   Zn6   S    
C91   C96   A    
C16   H34   S    
C55   C64   A    
C107  H66   S    
C121  C144  A    
C122  C143  A    
C72   C75   A    
C50   C90   A    
O26   Zn6   S    
C23   N18   S    
O54   Zn10  S    
O21   Zn10  S    
C124  C203  A    
C120  C129  A    
C44   C156  S    
O32   Zn2   S    
C168  O50   S    
C165  C174  A    
O35   Zn12  S    
C98   N14   S    
C5    H23   S    
C6    H24   S    
C151  C159  A    
C31   N6    S    
C39   O27   A    
H40   N1    S    
H5    N7    S    
H105  N2    S    
C190  O2    A    
C112  O19   A    
C115  O51   S    
C39   C162  S    
C195  O15   A    
C145  C154  A    
C101  H20   S    
C107  O48   S    
C103  H54   S    
C183  O26   A    
C181  C199  A    
O23   Zn6   S    
C161  O53   A    
C122  C131  A    
C172  C178  S    
C132  C141  A    
C46   H2    S    
C117  O52   S    
C150  O45   A    
C184  C201  A    
C83   C101  A    
C88   C193  S    
C118  H90   S    
C120  C141  A    
O56   Zn9   S    
C191  O3    A    
C43   C157  S    
C93   C189  S    
H8    N9    S    
H95   N17   S    
C89   C197  S    
C123  C137  A    
H6    N8    S    
H101  N20   S    
C128  O20   A    
C170  C179  A    
O34   Zn7   S    
C145  C198  A    
C31   C129  A    
C117  C118  S    
H93   N16   S    
C6    C147  A    
C28   C37   A    
C4    C145  A    
C186  C203  A    
C102  H52   S    
C148  C157  A    
C50   C65   A    
C51   C79   A    
O10   Zn5   S    
C11   C153  A    
C114  H79   S    
C128  C174  S    
C37   C134  A    
C48   C113  A    
C51   C60   A    
C149  C202  A    
C26   N20   S    
C25   C33   A    
C100  O44   S    
C119  C127  A    
C125  C134  A    
C12   H31   S    
C68   C80   A    
O17   Zn11  S    
C73   C74   A    
C111  O50   S    
H42   N12   S    
C3    C126  A    
C176  C185  A    
C42   C158  S    
C34   N9    S    
C166  C175  A    
C65   C76   A    
C9    H28   S    
C44   O32   A    
C45   O40   A    
H96   N17   S    
C108  H70   S    
C49   C101  A    
C8    H27   S    
O45   Zn8   S    
C168  C177  A    
C62   H36   S    
C104  H56   S    
C20   C138  A    
C103  O46   S    
C196  O7    A    
H103  N20   S    
C10   C152  A    
C146  C155  A    
C65   C67   A    
H107  N3    S    
C160  C169  A    
H108  N4    S    
C42   O37   A    
H97   N18   S    
O22   Zn5   S    
C4    H22   S    
C163  C171  A    
C93   C99   A    
C44   O43   A    
C25   C184  A    
C63   H25   S    
C81   C89   A    
C173  C181  A    
C117  H87   S    
C111  H77   S    
C196  O16   A    
O38   Zn4   S    
C32   C130  A    
C92   C190  S    
C106  H62   S    
C124  C136  A    
C28   N3    S    
C108  H68   S    
C16   C143  A    
C182  C200  A    
O2    Zn8   S    
C139  O34   A    
C53   C57   A    
C38   N13   S    
C121  C200  A    
C162  C170  A    
C10   C19   A    
C61   H47   S    
C46   C54   A    
C38   C135  A    
C147  C156  A    
C21   N16   S    
C5    C14   A    
H41   N1    S    
C178  C187  A    
C7    C16   A    
C189  O9    A    
C126  C135  A    
O40   Zn12  S    
O55   Zn11  S    
O53   Zn9   S    
C104  H57   S    
C100  H49   S    
C122  C201  A    
C71   C73   A    
H9    N9    S    
H7    N8    S    
H4    N7    S    
C103  H55   S    
C40   C160  S    
C96   N1    S    
O18   Zn9   S    
C27   C36   A    
O16   Zn10  S    
C105  C106  S    
C13   C83   A    
C153  C162  A    
O14   Zn8   S    
C23   C32   A    
C8    C149  A    
C29   N4    S    
O31   Zn12  S    
C172  O54   A    
C91   C196  S    
C43   O31   A    
C156  C165  A    
C105  H60   S    
C12   C142  A    
C111  C114  S    
O27   Zn3   S    
C148  C201  A    
C82   C194  A    
C177  C186  A    
H43   N12   S    
O43   Zn12  S    
C103  C104  S    
C119  C142  A    
C152  C204  A    
C195  O6    A    
H104  N2    S    
C175  C184  A    
C110  H74   S    
H46   N15   S    
C150  C176  S    
C152  C160  A    
C84   C113  A    
C27   N2    S    
C107  H65   S    
C139  C175  S    
C68   H17   S    
C3    C188  A    
C14   H32   S    
C35   C81   A    
C95   C98   A    
C92   C98   A    
C159  C168  A    
O1    Zn1   S    
C83   C92   A    
H15   N13   S    
H10   N10   S    
C190  O10   A    
H100  N19   S    
H45   N14   S    
C185  C202  A    
C37   N11   S    
C109  O49   S    
C66   C69   A    
C115  H82   S    
C116  H85   S    
C3    C153  A    
O24   Zn1   S    
C146  C199  A    
C169  O51   S    
C19   H38   S    
C6    C15   A    
C41   C159  S    
C26   C34   A    
C21   C180  A    
C19   C140  A    
C165  O47   S    
C54   C70   A    
C1    O18   A    
C45   C155  S    
C104  H59   S    
C39   O38   A    
C52   C68   A    
C95   C191  S    
O36   Zn3   S    
C33   C131  A    
C11   H30   S    
C112  C173  S    
C42   O30   A    
C14   C141  A    
C34   C132  A    
C2    C75   A    
C46   C82   A    
C163  O44   S    
C192  O13   A    
C128  O23   A    
C179  C183  S    
C22   C31   A    
C35   C55   A    
C109  H72   S    
C154  C163  A    
C40   O39   A    
O42   Zn2   S    
O5    Zn5   S    
H98   N18   S    
C99   N15   S    
C49   C58   A    
C33   N8    S    
C89   C97   A    
C27   C186  A    
C13   C86   A    
H44   N14   S    
C53   C62   A    
C9    C18   A    
H110  N5    S    
C13   C76   A    
C87   C96   A    
C100  C102  S    
O12   Zn5   S    
C97   N12   S    
C109  H71   S    
C56   H91   S    
C135  C144  A    
O9    Zn1   S    
O3    Zn11  S    
C171  C180  A    
C47   O41   A    
C1    O1    A    
C169  C178  A    
C7    C148  A    
C48   C56   A    
C126  C138  A    
C5    C146  A    
C123  C202  A    
C53   C73   A    
C151  C203  A    
C157  C166  A    
C114  H81   S    
O4    Zn10  S    
C155  C164  A    
H94   N16   S    
C102  H53   S    
C106  H64   S    
C110  H73   S    
C24   C84   A    
C139  O21   A    
C41   O29   A    
H111  N5    S    
C71   C75   A    
C197  O8    A    
C58   H80   S    
C94   C99   A    
C59   H69   S    
C193  O14   A    
C116  H84   S    
C94   C192  S    
C2    C80   A    
C105  O47   S    
C15   C144  A    
O33   Zn2   S    
C70   C72   A    
C164  O46   S    
C167  C176  A    
