data_str_m4_o27_o27_f0_acs.sym.177
_audit_creation_date              2012-12-11T15:17:44-0500
_audit_creation_method            fapswitch 2.2
_symmetry_space_group_name_H-M    P1
_symmetry_Int_Tables_number       1
_space_group_crystal_system       triclinic
_cell_length_a                    15.696564
_cell_length_b                    15.696595
_cell_length_c                    34.114514
_cell_angle_alpha                 90.000358
_cell_angle_beta                  89.999575
_cell_angle_gamma                 120.000045
_cell_volume                      7279.13328086

loop_
_atom_site_label
_atom_site_type_symbol
_atom_type_description
_atom_site_fract_x
_atom_site_fract_y
_atom_site_fract_z
_atom_type_partial_charge
C1    C     C_R   0.577929 0.441822 0.554991 0.538543
C2    C     C_R   0.558177 0.136106 0.554991 0.538542
C3    C     C_R   0.863894 0.422071 0.554991 0.538541
C4    C     C_R   0.441697 0.578404 0.055244 0.543184
C5    C     C_R   0.136708 0.558304 0.055244 0.543195
C6    C     C_R   0.421597 0.863295 0.055243 0.543186
C7    C     C_R   0.950111 0.497755 0.716637 0.334302
C8    C     C_R   0.502245 0.452353 0.716638 0.334298
C9    C     C_R   0.547643 0.049891 0.716638 0.334305
C10   C     C_R   0.490799 0.947984 0.217872 0.337178
C11   C     C_R   0.457172 0.509172 0.217869 0.337136
C12   C     C_R   0.052051 0.542833 0.217878 0.337107
C13   C     C_R   0.979004 0.434559 0.855124 -0.141926
C14   C     C_R   0.565441 0.544440 0.855125 -0.141925
C15   C     C_R   0.455558 0.020999 0.855125 -0.141925
C16   C     C_R   0.428785 0.968195 0.358834 -0.137399
C17   C     C_R   0.539415 0.571202 0.358828 -0.137402
C18   C     C_R   0.031822 0.460595 0.358839 -0.137403
C19   C     C_R   0.023296 0.442780 0.891598 -0.030891
C20   C     C_R   0.557221 0.580513 0.891598 -0.030890
C21   C     C_R   0.419486 0.976707 0.891599 -0.030891
C22   C     C_R   0.438571 0.011392 0.395829 -0.026184
C23   C     C_R   0.572826 0.561422 0.395824 -0.026183
C24   C     C_R   0.988617 0.427181 0.395833 -0.026184
C25   C     C_R   0.055478 0.611002 0.896279 -0.157793
C26   C     C_R   0.388999 0.444472 0.896280 -0.157797
C27   C     C_R   0.555527 0.944524 0.896279 -0.157795
C28   C     C_R   0.611096 0.055846 0.396192 -0.147646
C29   C     C_R   0.444752 0.388897 0.396191 -0.147645
C30   C     C_R   0.944162 0.555251 0.396194 -0.147649
C31   C     C_R   0.010463 0.601971 0.860015 -0.021880
C32   C     C_R   0.398030 0.408486 0.860016 -0.021880
C33   C     C_R   0.591512 0.989541 0.860016 -0.021879
C34   C     C_R   0.599367 0.008146 0.360364 -0.017494
C35   C     C_R   0.408782 0.400620 0.360363 -0.017496
C36   C     C_R   0.991870 0.591225 0.360368 -0.017491
C37   C     C_R   0.977966 0.515323 0.838066 0.017963
C38   C     C_R   0.484677 0.462636 0.838067 0.017964
C39   C     C_R   0.537361 0.022038 0.838067 0.017962
C40   C     C_R   0.510116 0.972382 0.339817 0.012377
C41   C     C_R   0.462269 0.489867 0.339814 0.012383
C42   C     C_R   0.027638 0.537740 0.339822 0.012380
C43   C     C_R   0.068466 0.534757 0.911333 -0.001136
C44   C     C_R   0.465244 0.533708 0.911333 -0.001139
C45   C     C_R   0.466292 0.931535 0.911333 -0.001138
C46   C     C_R   0.533528 0.064008 0.412945 -0.007041
C47   C     C_R   0.530482 0.466467 0.412944 -0.007042
C48   C     C_R   0.935997 0.469520 0.412947 -0.007042
C49   C     C_R   0.576582 0.443137 0.446024 0.541934
C50   C     C_R   0.556862 0.133444 0.446024 0.541936
C51   C     C_R   0.866557 0.423418 0.446025 0.541936
C52   C     C_R   0.442955 0.577229 0.945640 0.545938
C53   C     C_R   0.134274 0.557045 0.945639 0.545944
C54   C     C_R   0.422771 0.865726 0.945640 0.545939
C55   C     C_R   0.915090 0.454001 0.593045 -0.003312
C56   C     C_R   0.545999 0.461088 0.593045 -0.003312
C57   C     C_R   0.538910 0.084911 0.593045 -0.003312
C58   C     C_R   0.451626 0.912755 0.093781 -0.002773
C59   C     C_R   0.461126 0.548373 0.093781 -0.002770
C60   C     C_R   0.087263 0.538883 0.093785 -0.002772
C61   C     C_R   0.915932 0.381771 0.617041 -0.145580
C62   C     C_R   0.618229 0.534160 0.617042 -0.145580
C63   C     C_R   0.465839 0.084071 0.617042 -0.145581
C64   C     C_R   0.378290 0.912879 0.117328 -0.143314
C65   C     C_R   0.534574 0.621711 0.117332 -0.143302
C66   C     C_R   0.087132 0.465417 0.117332 -0.143300
C67   C     C_R   0.934117 0.397384 0.657098 -0.017649
C68   C     C_R   0.602616 0.536731 0.657099 -0.017648
C69   C     C_R   0.463267 0.065887 0.657099 -0.017650
C70   C     C_R   0.392392 0.931140 0.157439 -0.018755
C71   C     C_R   0.538736 0.607594 0.157441 -0.018734
C72   C     C_R   0.068876 0.461261 0.157444 -0.018735
C73   C     C_R   0.950375 0.486533 0.673806 0.013975
C74   C     C_R   0.513467 0.463839 0.673808 0.013974
C75   C     C_R   0.536158 0.049628 0.673807 0.013976
C76   C     C_R   0.480817 0.947380 0.174853 0.013451
C77   C     C_R   0.466561 0.519158 0.174851 0.013433
C78   C     C_R   0.052653 0.533456 0.174859 0.013427
C79   C     C_R   0.962289 0.563493 0.649232 -0.147793
C80   C     C_R   0.436507 0.398792 0.649233 -0.147793
C81   C     C_R   0.601204 0.037713 0.649232 -0.147793
C82   C     C_R   0.558728 0.959442 0.150735 -0.146887
C83   C     C_R   0.400724 0.441250 0.150729 -0.146889
C84   C     C_R   0.040613 0.599321 0.150743 -0.146888
C85   C     C_R   0.946202 0.548836 0.608669 -0.025491
C86   C     C_R   0.451164 0.397363 0.608670 -0.025490
C87   C     C_R   0.602633 0.053799 0.608669 -0.025490
C88   C     C_R   0.545767 0.944081 0.110048 -0.026153
C89   C     C_R   0.398324 0.454222 0.110043 -0.026152
C90   C     C_R   0.055968 0.601718 0.110057 -0.026150
C91   C     C_R   0.958131 0.512356 0.795796 0.347151
C92   C     C_R   0.487644 0.445769 0.795797 0.347152
C93   C     C_R   0.554228 0.041873 0.795797 0.347152
C94   C     C_R   0.505135 0.954817 0.297153 0.342342
C95   C     C_R   0.449681 0.494842 0.297150 0.342334
C96   C     C_R   0.045207 0.550324 0.297158 0.342328
Cr1   Cr    Cr6+3 0.522350 0.263930 0.500020 1.035468
Cr2   Cr    Cr6+3 0.736070 0.258420 0.500020 1.035468
Cr3   Cr    Cr6+3 0.741580 0.477650 0.500020 1.035468
Cr4   Cr    Cr6+3 0.263930 0.522350 0.000020 1.032159
Cr5   Cr    Cr6+3 0.258420 0.736070 0.000020 1.032159
Cr6   Cr    Cr6+3 0.477650 0.741580 0.000020 1.032153
H1    H     H_    0.897020 0.310491 0.605061 0.133968
H2    H     H_    0.689508 0.586529 0.605062 0.133968
H3    H     H_    0.413471 0.102982 0.605062 0.133968
H4    H     H_    0.307510 0.894181 0.104876 0.136269
H5    H     H_    0.586642 0.692501 0.104884 0.136282
H6    H     H_    0.105819 0.413328 0.104878 0.136291
H7    H     H_    0.980860 0.634050 0.661847 0.116327
H8    H     H_    0.365950 0.346804 0.661848 0.116329
H9    H     H_    0.653191 0.019143 0.661847 0.116329
H10   H     H_    0.629046 0.978591 0.163732 0.117425
H11   H     H_    0.349562 0.370924 0.163724 0.117408
H12   H     H_    0.021490 0.650509 0.163743 0.117447
H13   H     H_    0.951078 0.366355 0.838859 0.130036
H14   H     H_    0.633645 0.584716 0.838859 0.130037
H15   H     H_    0.415281 0.048926 0.838861 0.130037
H16   H     H_    0.358188 0.934725 0.344098 0.123258
H17   H     H_    0.576542 0.641795 0.344090 0.123255
H18   H     H_    0.065295 0.423470 0.344104 0.123258
H19   H     H_    0.083196 0.679416 0.912224 0.121283
H20   H     H_    0.320584 0.403776 0.912225 0.121283
H21   H     H_    0.596223 0.916806 0.912224 0.121281
H22   H     H_    0.682375 0.089209 0.410417 0.136920
H23   H     H_    0.406835 0.317619 0.410417 0.136924
H24   H     H_    0.910794 0.593166 0.410417 0.136921
N1    N     N_R   0.894794 0.426124 0.778232 -0.223092
N2    N     N_R   0.573876 0.468663 0.778233 -0.223091
N3    N     N_R   0.531330 0.105208 0.778233 -0.223093
N4    N     N_R   0.417842 0.895074 0.279493 -0.230850
N5    N     N_R   0.477196 0.582125 0.279489 -0.230836
N6    N     N_R   0.104959 0.522785 0.279498 -0.230839
N7    N     N_R   0.890283 0.419355 0.739393 -0.198833
N8    N     N_R   0.580645 0.470922 0.739394 -0.198834
N9    N     N_R   0.529070 0.109718 0.739394 -0.198836
N10   N     N_R   0.411168 0.891168 0.240623 -0.202262
N11   N     N_R   0.479958 0.588796 0.240619 -0.202224
N12   N     N_R   0.108870 0.520022 0.240628 -0.202223
N13   N     N_R   0.011142 0.584948 0.734107 -0.253749
N14   N     N_R   0.415052 0.426191 0.734109 -0.253753
N15   N     N_R   0.573809 0.988863 0.734108 -0.253749
N16   N     N_R   0.578714 0.005768 0.235451 -0.250379
N17   N     N_R   0.427075 0.421265 0.235448 -0.250374
N18   N     N_R   0.994256 0.572951 0.235457 -0.250418
N19   N     N_R   0.015425 0.591808 0.773008 -0.223548
N20   N     N_R   0.408192 0.423613 0.773010 -0.223552
N21   N     N_R   0.576387 0.984580 0.773009 -0.223548
N22   N     N_R   0.585459 0.009532 0.274358 -0.215223
N23   N     N_R   0.424098 0.414522 0.274355 -0.215213
N24   N     N_R   0.990488 0.575928 0.274363 -0.215245
O1    O     O_R   0.498680 0.159540 0.541860 -0.520244
O2    O     O_R   0.840460 0.339140 0.541860 -0.520246
O3    O     O_R   0.660860 0.501320 0.541860 -0.520243
O4    O     O_R   0.159540 0.498680 0.041860 -0.516234
O5    O     O_R   0.339140 0.840460 0.041860 -0.516233
O6    O     O_R   0.501320 0.660860 0.041860 -0.516238
O7    O     O_R   0.532760 0.358060 0.540030 -0.486383
O8    O     O_R   0.641940 0.174700 0.540030 -0.486383
O9    O     O_R   0.825300 0.467240 0.540030 -0.486384
O10   O     O_R   0.358060 0.532760 0.040030 -0.487038
O11   O     O_R   0.174700 0.641940 0.040030 -0.487033
O12   O     O_R   0.467240 0.825300 0.040030 -0.487039
O13   O     O_R   0.498590 0.161190 0.456930 -0.502551
O14   O     O_R   0.838810 0.337400 0.456930 -0.502551
O15   O     O_R   0.662600 0.501410 0.456930 -0.502551
O16   O     O_R   0.161190 0.498590 0.956930 -0.506197
O17   O     O_R   0.337400 0.838810 0.956930 -0.506198
O18   O     O_R   0.501410 0.662600 0.956930 -0.506200
O19   O     O_R   0.532680 0.359580 0.461300 -0.504153
O20   O     O_R   0.640420 0.173100 0.461300 -0.504152
O21   O     O_R   0.826900 0.467320 0.461300 -0.504152
O22   O     O_R   0.359580 0.532680 0.961300 -0.507228
O23   O     O_R   0.173100 0.640420 0.961300 -0.507228
O24   O     O_R   0.467320 0.826900 0.961300 -0.507230
O25   O     O_3   0.666667 0.333333 0.499990 -0.241323
O26   O     O_3   0.333333 0.666667 0.999990 -0.243219
C97   C     C_R   0.960615 0.632329 0.583391 0.052095
C98   C     C_R   0.016203 0.654098 0.548684 -0.071956
C99   C     C_R   0.026803 0.730116 0.524100 -0.114788
C100  C     C_R   0.982894 0.785671 0.534057 -0.108096
C101  C     C_R   0.928686 0.765580 0.568696 -0.111588
C102  C     C_R   0.917784 0.689539 0.593326 -0.089223
H25   H     H_    0.050573 0.611615 0.540510 0.088666
H26   H     H_    0.068792 0.745704 0.497256 0.105042
H27   H     H_    0.990783 0.844219 0.514948 0.094573
H28   H     H_    0.894620 0.808607 0.576375 0.104840
H29   H     H_    0.874597 0.674364 0.619712 0.095028
C103  C     C_R   0.367671 0.328280 0.583392 0.052096
C104  C     C_R   0.345899 0.362097 0.548686 -0.071956
C105  C     C_R   0.269881 0.296677 0.524102 -0.114788
C106  C     C_R   0.214329 0.197212 0.534059 -0.108095
C107  C     C_R   0.234425 0.163098 0.568697 -0.111588
C108  C     C_R   0.310465 0.228240 0.593327 -0.089222
H30   H     H_    0.388379 0.438950 0.540512 0.088668
H31   H     H_    0.254290 0.323075 0.497258 0.105042
H32   H     H_    0.155781 0.146552 0.514950 0.094572
H33   H     H_    0.191400 0.086004 0.576376 0.104839
H34   H     H_    0.325643 0.200230 0.619712 0.095030
C109  C     C_R   0.671714 0.039386 0.583391 0.052095
C110  C     C_R   0.637894 0.983797 0.548684 -0.071956
C111  C     C_R   0.703312 0.973196 0.524100 -0.114787
C112  C     C_R   0.802777 0.017105 0.534056 -0.108095
C113  C     C_R   0.836893 0.071314 0.568695 -0.111588
C114  C     C_R   0.771754 0.082217 0.593325 -0.089221
H35   H     H_    0.561041 0.949427 0.540511 0.088666
H36   H     H_    0.676911 0.931206 0.497256 0.105038
H37   H     H_    0.853435 0.009215 0.514947 0.094572
H38   H     H_    0.913987 0.105381 0.576373 0.104838
H39   H     H_    0.799767 0.125405 0.619710 0.095027
C115  C     C_R   0.630889 0.962172 0.085086 0.050016
C116  C     C_R   0.690455 0.921871 0.094806 -0.091056
C117  C     C_R   0.768946 0.937650 0.070584 -0.109791
C118  C     C_R   0.789057 0.994240 0.036591 -0.106349
C119  C     C_R   0.730972 0.035531 0.026899 -0.109826
C120  C     C_R   0.652558 0.020009 0.051044 -0.069739
H40   H     H_    0.675417 0.877126 0.120711 0.097380
H41   H     H_    0.813966 0.905678 0.078110 0.108081
H42   H     H_    0.849644 0.006186 0.017799 0.097426
H43   H     H_    0.746471 0.079563 0.000675 0.093656
H44   H     H_    0.608416 0.052744 0.043118 0.094049
C121  C     C_R   0.331303 0.369103 0.085077 0.050007
C122  C     C_R   0.231440 0.309511 0.094798 -0.091075
C123  C     C_R   0.168738 0.231025 0.070573 -0.109804
C124  C     C_R   0.205221 0.210945 0.036575 -0.106360
C125  C     C_R   0.304592 0.269056 0.026881 -0.109824
C126  C     C_R   0.367476 0.347463 0.051030 -0.069731
H45   H     H_    0.201729 0.324525 0.120708 0.097387
H46   H     H_    0.091749 0.185986 0.078101 0.108073
H47   H     H_    0.156585 0.150363 0.017779 0.097419
H48   H     H_    0.333127 0.253581 0.000651 0.093651
H49   H     H_    0.444349 0.391623 0.043102 0.094048
C127  C     C_R   0.037919 0.668785 0.085101 0.050034
C128  C     C_R   0.078322 0.768671 0.094815 -0.091020
C129  C     C_R   0.062592 0.831419 0.070597 -0.109777
C130  C     C_R   0.005942 0.794955 0.036615 -0.106334
C131  C     C_R   0.964547 0.695560 0.026930 -0.109831
C132  C     C_R   0.980029 0.632634 0.051070 -0.069764
H50   H     H_    0.123110 0.798361 0.120712 0.097403
H51   H     H_    0.094649 0.908427 0.078116 0.108079
H52   H     H_    0.994031 0.843624 0.017826 0.097420
H53   H     H_    0.920464 0.667039 0.000714 0.093655
H54   H     H_    0.947220 0.555743 0.043149 0.094049
C133  C     C_R   0.021193 0.353740 0.907155 0.047587
C134  C     C_R   0.102958 0.340844 0.902928 -0.062602
C135  C     C_R   0.098182 0.253632 0.915464 -0.110088
C136  C     C_R   0.011110 0.178031 0.931443 -0.103116
C137  C     C_R   0.928877 0.189712 0.935115 -0.113821
C138  C     C_R   0.933765 0.277254 0.923066 -0.103864
H55   H     H_    0.170132 0.398674 0.890110 0.107664
H56   H     H_    0.161535 0.244082 0.912479 0.108241
H57   H     H_    0.007162 0.110202 0.940738 0.093087
H58   H     H_    0.861048 0.130462 0.946857 0.095939
H59   H     H_    0.869149 0.284943 0.925604 0.101040
C139  C     C_R   0.646262 0.667450 0.907155 0.047586
C140  C     C_R   0.659158 0.762111 0.902930 -0.062601
C141  C     C_R   0.746372 0.844546 0.915464 -0.110092
C142  C     C_R   0.821977 0.833076 0.931439 -0.103115
C143  C     C_R   0.810297 0.739162 0.935109 -0.113825
C144  C     C_R   0.722752 0.656509 0.923062 -0.103873
H60   H     H_    0.601326 0.771455 0.890114 0.107667
H61   H     H_    0.755922 0.917449 0.912479 0.108241
H62   H     H_    0.889809 0.896957 0.940732 0.093092
H63   H     H_    0.869551 0.730584 0.946848 0.095940
H64   H     H_    0.715064 0.584204 0.925599 0.101040
C145  C     C_R   0.332548 0.978808 0.907156 0.047587
C146  C     C_R   0.237887 0.897042 0.902929 -0.062601
C147  C     C_R   0.155451 0.901817 0.915465 -0.110090
C148  C     C_R   0.166919 0.988887 0.931444 -0.103126
C149  C     C_R   0.260832 0.071120 0.935117 -0.113824
C150  C     C_R   0.343487 0.066234 0.923068 -0.103866
H65   H     H_    0.228545 0.829870 0.890110 0.107664
H66   H     H_    0.082548 0.838463 0.912479 0.108240
H67   H     H_    0.103037 0.992834 0.940739 0.093081
H68   H     H_    0.269408 0.138948 0.946859 0.095938
H69   H     H_    0.415791 0.130850 0.925607 0.101038
C151  C     C_R   0.348961 0.000467 0.415416 0.053146
C152  C     C_R   0.326726 0.966550 0.454318 -0.057557
C153  C     C_R   0.242353 0.956388 0.472609 -0.109350
C154  C     C_R   0.178649 0.978330 0.452085 -0.109465
C155  C     C_R   0.199017 0.010128 0.413204 -0.108537
C156  C     C_R   0.283603 0.020927 0.394928 -0.096053
H70   H     H_    0.374970 0.948494 0.470505 0.094964
H71   H     H_    0.226291 0.931352 0.502685 0.104591
H72   H     H_    0.113400 0.970459 0.466249 0.089977
H73   H     H_    0.149294 0.026453 0.397226 0.113333
H74   H     H_    0.298589 0.045559 0.364859 0.088769
C157  C     C_R   0.651510 0.651034 0.415409 0.053149
C158  C     C_R   0.639827 0.673275 0.454311 -0.057557
C159  C     C_R   0.714037 0.757652 0.472600 -0.109352
C160  C     C_R   0.799683 0.821353 0.452075 -0.109462
C161  C     C_R   0.811114 0.800979 0.413195 -0.108535
C162  C     C_R   0.737328 0.716389 0.394920 -0.096057
H75   H     H_    0.573527 0.625034 0.470498 0.094965
H76   H     H_    0.705062 0.773718 0.502675 0.104589
H77   H     H_    0.857060 0.886605 0.466237 0.089980
H78   H     H_    0.877162 0.850700 0.397216 0.113336
H79   H     H_    0.746975 0.701399 0.364852 0.088763
C163  C     C_R   0.999538 0.348495 0.415420 0.053149
C164  C     C_R   0.033450 0.360176 0.454322 -0.057556
C165  C     C_R   0.043610 0.285964 0.472614 -0.109350
C166  C     C_R   0.021670 0.200319 0.452089 -0.109465
C167  C     C_R   0.989876 0.188890 0.413207 -0.108541
C168  C     C_R   0.979079 0.262677 0.394931 -0.096057
H80   H     H_    0.051504 0.426475 0.470510 0.094964
H81   H     H_    0.068642 0.294937 0.502689 0.104591
H82   H     H_    0.029540 0.142940 0.466253 0.089979
H83   H     H_    0.973553 0.122842 0.397229 0.113332
H84   H     H_    0.954451 0.253033 0.364861 0.088764
C169  C     C_R   0.936248 0.319513 0.680784 0.042291
C170  C     C_R   0.025518 0.334850 0.696495 -0.076160
C171  C     C_R   0.027841 0.261522 0.718954 -0.113534
C172  C     C_R   0.941098 0.172886 0.726023 -0.102652
C173  C     C_R   0.851772 0.157671 0.710898 -0.098813
C174  C     C_R   0.849204 0.230727 0.688300 -0.083129
H85   H     H_    0.093137 0.403285 0.691177 0.116352
H86   H     H_    0.096912 0.273321 0.730782 0.114656
H87   H     H_    0.943184 0.116006 0.743157 0.103191
H88   H     H_    0.784652 0.089255 0.716670 0.135694
H89   H     H_    0.779626 0.218633 0.676900 0.119180
C175  C     C_R   0.680487 0.616733 0.680786 0.042292
C176  C     C_R   0.665148 0.690663 0.696498 -0.076159
C177  C     C_R   0.738476 0.766315 0.718957 -0.113534
C178  C     C_R   0.827114 0.768210 0.726024 -0.102653
C179  C     C_R   0.842330 0.694101 0.710898 -0.098814
C180  C     C_R   0.769274 0.618477 0.688301 -0.083130
H90   H     H_    0.596712 0.689846 0.691181 0.116353
H91   H     H_    0.726677 0.823584 0.730787 0.114658
H92   H     H_    0.883995 0.827176 0.743159 0.103190
H93   H     H_    0.910747 0.695399 0.716670 0.135692
H94   H     H_    0.781368 0.560994 0.676899 0.119180
C181  C     C_R   0.383265 0.063756 0.680785 0.042289
C182  C     C_R   0.309323 0.974484 0.696491 -0.076166
C183  C     C_R   0.233670 0.972161 0.718948 -0.113536
C184  C     C_R   0.231783 0.058906 0.726021 -0.102656
C185  C     C_R   0.305903 0.148233 0.710902 -0.098816
C186  C     C_R   0.381528 0.150801 0.688305 -0.083126
H95   H     H_    0.310134 0.906864 0.691170 0.116352
H96   H     H_    0.176392 0.903090 0.730773 0.114658
H97   H     H_    0.172815 0.056820 0.743154 0.103191
H98   H     H_    0.304610 0.215353 0.716677 0.135702
H99   H     H_    0.439018 0.220380 0.676908 0.119188
C187  C     C_R   0.314263 0.935071 0.180198 0.042513
C188  C     C_R   0.226195 0.848470 0.188996 -0.082553
C189  C     C_R   0.151893 0.853113 0.209858 -0.103117
C190  C     C_R   0.165207 0.944092 0.221945 -0.107704
C191  C     C_R   0.253415 0.030393 0.213856 -0.112665
C192  C     C_R   0.327942 0.026016 0.193094 -0.076878
H100  H     H_    0.215389 0.777771 0.179707 0.120563
H101  H     H_    0.083857 0.786359 0.216515 0.135135
H102  H     H_    0.107177 0.947838 0.237500 0.100890
H103  H     H_    0.263778 0.100688 0.223480 0.118118
H104  H     H_    0.395813 0.093355 0.186732 0.116901
C193  C     C_R   0.620793 0.685717 0.180205 0.042563
C194  C     C_R   0.622341 0.773850 0.188951 -0.082595
C195  C     C_R   0.701277 0.848140 0.209820 -0.103076
C196  C     C_R   0.778851 0.834743 0.221971 -0.107670
C197  C     C_R   0.776857 0.746467 0.213938 -0.112673
C198  C     C_R   0.697963 0.671955 0.193167 -0.076807
H105  H     H_    0.562514 0.784717 0.179616 0.120482
H106  H     H_    0.702622 0.916227 0.216436 0.135035
H107  H     H_    0.840622 0.892762 0.237533 0.100888
H108  H     H_    0.836717 0.736040 0.223612 0.118140
H109  H     H_    0.697365 0.604030 0.186848 0.116906
C199  C     C_R   0.064932 0.379196 0.180204 0.042557
C200  C     C_R   0.151508 0.377628 0.188943 -0.082589
C201  C     C_R   0.146854 0.298685 0.209810 -0.103084
C202  C     C_R   0.055887 0.221124 0.221963 -0.107677
C203  C     C_R   0.969614 0.223136 0.213936 -0.112670
C204  C     C_R   0.974004 0.302037 0.193168 -0.076807
H110  H     H_    0.222198 0.437445 0.179605 0.120487
H111  H     H_    0.213588 0.297325 0.216420 0.135004
H112  H     H_    0.052128 0.159349 0.237523 0.100882
H113  H     H_    0.899330 0.163286 0.223612 0.118147
H114  H     H_    0.906685 0.302649 0.186853 0.116913
C205  C     C_R   0.997053 0.683325 0.845834 0.033070
C206  C     C_R   0.076306 0.768158 0.829657 -0.077515
C207  C     C_R   0.063025 0.845095 0.816576 -0.113561
C208  C     C_R   0.970735 0.837635 0.819598 -0.109391
C209  C     C_R   0.891307 0.752920 0.835328 -0.096042
C210  C     C_R   0.904256 0.675719 0.848344 -0.086087
H115  H     H_    0.147843 0.774201 0.826890 0.115017
H116  H     H_    0.124233 0.910357 0.804078 0.098333
H117  H     H_    0.960551 0.897110 0.809462 0.087029
H118  H     H_    0.819781 0.747089 0.837474 0.117069
H119  H     H_    0.842328 0.610395 0.860564 0.109095
C211  C     C_R   0.316676 0.313722 0.845835 0.033069
C212  C     C_R   0.231845 0.308141 0.829657 -0.077514
C213  C     C_R   0.154907 0.217921 0.816576 -0.113561
C214  C     C_R   0.162366 0.133091 0.819600 -0.109389
C215  C     C_R   0.247079 0.138379 0.835332 -0.096042
C216  C     C_R   0.324280 0.228531 0.848349 -0.086092
H120  H     H_    0.225802 0.373634 0.826889 0.115018
H121  H     H_    0.089646 0.213867 0.804077 0.098326
H122  H     H_    0.102892 0.063433 0.809464 0.087031
H123  H     H_    0.252908 0.072684 0.837480 0.117071
H124  H     H_    0.389602 0.231927 0.860569 0.109094
C217  C     C_R   0.686276 0.002952 0.845834 0.033073
C218  C     C_R   0.691858 0.923699 0.829658 -0.077518
C219  C     C_R   0.782078 0.936981 0.816577 -0.113561
C220  C     C_R   0.866908 0.029272 0.819599 -0.109389
C221  C     C_R   0.861619 0.108699 0.835328 -0.096042
C222  C     C_R   0.771466 0.095749 0.848344 -0.086086
H125  H     H_    0.626366 0.852162 0.826892 0.115015
H126  H     H_    0.786134 0.875773 0.804080 0.098327
H127  H     H_    0.936567 0.039455 0.809464 0.087031
H128  H     H_    0.927314 0.180225 0.837475 0.117067
H129  H     H_    0.768070 0.157677 0.860563 0.109095
C223  C     C_R   0.680689 0.995904 0.344899 0.045704
C224  C     C_R   0.664901 0.901250 0.336890 -0.069465
C225  C     C_R   0.740953 0.889274 0.321749 -0.099701
C226  C     C_R   0.833002 0.971537 0.314402 -0.115282
C227  C     C_R   0.848712 0.065858 0.321717 -0.119191
C228  C     C_R   0.773117 0.078215 0.337218 -0.078258
H130  H     H_    0.593834 0.836902 0.342432 0.114178
H131  H     H_    0.728229 0.816252 0.315516 0.108147
H132  H     H_    0.891976 0.962374 0.302755 0.084292
H133  H     H_    0.919353 0.129334 0.315178 0.093993
H134  H     H_    0.785725 0.151649 0.342512 0.113103
C229  C     C_R   0.315220 0.319297 0.344898 0.045692
C230  C     C_R   0.236349 0.335081 0.336893 -0.069472
C231  C     C_R   0.148324 0.259030 0.321750 -0.099700
C232  C     C_R   0.138545 0.166988 0.314396 -0.115281
C233  C     C_R   0.217160 0.151282 0.321707 -0.119169
C234  C     C_R   0.305110 0.226875 0.337211 -0.078244
H135  H     H_    0.243064 0.406143 0.342440 0.114179
H136  H     H_    0.088023 0.271751 0.315519 0.108148
H137  H     H_    0.070410 0.108015 0.302746 0.084292
H138  H     H_    0.210001 0.080646 0.315162 0.094023
H139  H     H_    0.365940 0.214272 0.342500 0.113114
C235  C     C_R   0.004107 0.684785 0.344901 0.045706
C236  C     C_R   0.098761 0.763654 0.336892 -0.069483
C237  C     C_R   0.110731 0.851673 0.321744 -0.099723
C238  C     C_R   0.028465 0.861448 0.314390 -0.115286
C239  C     C_R   0.934145 0.782835 0.321705 -0.119197
C240  C     C_R   0.921792 0.694891 0.337213 -0.078252
H140  H     H_    0.163111 0.756942 0.342438 0.114175
H141  H     H_    0.183753 0.911973 0.315510 0.108162
H142  H     H_    0.037625 0.929578 0.302736 0.084299
H143  H     H_    0.870665 0.789991 0.315160 0.093993
H144  H     H_    0.848359 0.634062 0.342505 0.113103

loop_
_geom_bond_atom_site_label_1
_geom_bond_atom_site_label_2
_ccdc_geom_bond_type
C135  H56   S    
C197  C198  A    
C6    C58   S    
C36   C42   A    
C123  C124  A    
C54   O17   A    
C173  H88   S    
C7    C73   S    
Cr2   O2    S    
C183  C184  A    
C91   N1    A    
C132  H54   S    
C230  C231  A    
C1    C56   S    
C7    N7    A    
C187  C192  A    
Cr5   O5    S    
C97   C102  A    
C38   C92   S    
C231  H136  S    
C134  C135  A    
C106  H32   S    
C80   C86   A    
C184  H97   S    
C66   C72   A    
C161  C162  A    
C179  C180  A    
C84   H12   S    
C111  H36   S    
C202  H112  S    
C87   C109  S    
C63   H3    S    
C21   C45   A    
C6    O5    A    
C19   C133  S    
C109  C110  A    
C88   C115  S    
C135  C136  A    
C58   C64   A    
C72   C199  S    
C162  H79   S    
C237  H141  S    
C203  C204  A    
C69   C181  S    
C166  H82   S    
C234  H139  S    
C112  C113  A    
C79   H7    S    
C106  C107  A    
C51   O21   A    
C187  C188  A    
C67   C169  S    
C137  H58   S    
C92   N20   A    
C31   C37   A    
C5    O11   A    
C145  C150  A    
C220  H127  S    
C16   H16   S    
C14   C38   A    
C147  H66   S    
C56   C86   A    
C195  C196  A    
C96   N24   A    
C8    C74   S    
C51   O14   A    
C182  C183  A    
C15   C39   A    
C13   H13   S    
C217  C222  A    
C16   C40   A    
C237  C238  A    
C214  C215  A    
C56   C62   A    
C163  C164  A    
C212  C213  A    
C79   C85   A    
C165  C166  A    
C175  C180  A    
C215  C216  A    
C156  H74   S    
C29   C35   A    
C189  H101  S    
Cr6   O18   S    
C184  C185  A    
C58   C88   A    
C205  C206  A    
C64   H4    S    
C60   C90   A    
C223  C228  A    
C125  H48   S    
C30   C36   A    
C8    N14   A    
C54   O24   A    
C207  H116  S    
C65   C71   A    
C120  H44   S    
C239  C240  A    
Cr2   O25   S    
C209  H118  S    
C139  C144  A    
C211  C212  A    
C9    N15   A    
N15   N21   A    
C185  C186  A    
C57   C87   A    
C53   O16   A    
N17   N23   A    
C117  C118  A    
C176  C177  A    
C208  C209  A    
C124  H47   S    
C11   N17   A    
C201  H111  S    
C108  H34   S    
Cr3   O15   S    
C165  H81   S    
C25   C31   A    
C152  H70   S    
C26   C32   A    
C105  C106  A    
Cr1   O25   S    
C29   H23   S    
Cr4   O22   S    
C130  H52   S    
Cr5   O23   S    
C229  C230  A    
C25   C43   A    
C98   C99   A    
C2    C57   S    
C53   O23   A    
C191  H103  S    
C205  C210  A    
C27   C33   A    
C119  C120  A    
C28   C46   A    
C196  H107  S    
C17   C23   A    
C149  H68   S    
C29   C47   A    
C18   C24   A    
C122  H45   S    
C30   C48   A    
C227  C228  A    
C146  H65   S    
C18   C42   A    
C89   C121  S    
C68   C74   A    
C238  H142  S    
C70   C187  S    
C208  H117  S    
C199  C200  A    
C142  C143  A    
C59   C89   A    
C190  H102  S    
N18   N24   A    
C11   C77   S    
C192  H104  S    
C155  H73   S    
C3    C55   S    
C63   C69   A    
C213  C214  A    
C128  C129  A    
C44   C52   S    
C116  H40   S    
C232  H137  S    
C152  C153  A    
C3    O9    A    
C90   C127  S    
C230  H135  S    
C84   C90   A    
C104  H30   S    
C20   C44   A    
C57   C63   A    
C62   H2    S    
C136  H57   S    
C94   N22   A    
C83   C89   A    
C23   C47   A    
C134  H55   S    
C68   C175  S    
C8    N8    A    
C24   C48   A    
C155  C156  A    
C211  C216  A    
C76   C82   A    
C138  H59   S    
C179  H93   S    
C172  H87   S    
C204  H114  S    
C131  H53   S    
C121  C122  A    
N2    N8    A    
C61   C67   A    
C236  C237  A    
C154  C155  A    
C32   C211  S    
C159  C160  A    
C73   C79   A    
C223  C224  A    
C225  C226  A    
C105  H31   S    
C9    N9    A    
C103  C108  A    
C133  C138  A    
C112  H37   S    
C232  C233  A    
C12   N12   A    
Cr6   O6    S    
C91   N19   A    
C199  C204  A    
C99   H26   S    
Cr4   O4    S    
C174  H89   S    
C136  C137  A    
C5    C60   S    
C226  H132  S    
C150  H69   S    
C98   H25   S    
C40   C94   S    
C220  C221  A    
C182  H95   S    
C45   C54   S    
C101  H28   S    
C28   H22   S    
C20   C139  S    
C168  H84   S    
C113  H38   S    
C153  H71   S    
C143  C144  A    
C224  C225  A    
C217  C218  A    
C59   C65   A    
C127  C132  A    
C25   H19   S    
C82   C88   A    
C55   C61   A    
C163  C168  A    
C35   C41   A    
C28   C34   A    
Cr2   O20   S    
C214  H122  S    
Cr3   O25   S    
C151  C152  A    
C194  C195  A    
C153  C154  A    
C141  H61   S    
C235  C240  A    
C65   H5    S    
C35   C229  S    
C86   C103  S    
C110  H35   S    
C83   H11   S    
C71   C77   A    
C113  C114  A    
C124  C125  A    
C193  C194  A    
C209  C210  A    
C101  C102  A    
C126  H49   S    
C3    O2    A    
C231  C232  A    
C42   C96   S    
C61   H1    S    
Cr3   O9    S    
C185  H98   S    
C117  H41   S    
N6    N12   A    
C133  C134  A    
C160  C161  A    
C10   N16   A    
C224  H130  S    
C201  C202  A    
C39   C93   S    
C140  H60   S    
C43   C53   S    
Cr2   O8    S    
C22   C151  S    
C102  H29   S    
Cr1   O13   S    
C114  H39   S    
Cr4   O26   S    
C130  C131  A    
C67   C73   A    
C221  H128  S    
C27   C45   A    
C177  C178  A    
C60   C66   A    
C74   C80   A    
C149  C150  A    
C95   N5    A    
C52   O22   A    
C93   N3    A    
C164  H80   S    
C19   C43   A    
C221  C222  A    
C170  H85   S    
C219  H126  S    
C158  C159  A    
N4    N10   A    
C13   C19   A    
C26   C44   A    
C142  H62   S    
C14   C20   A    
C144  H64   S    
N14   N20   A    
C215  H123  S    
C206  H115  S    
C213  H121  S    
C167  H83   S    
C15   H15   S    
C82   H10   S    
C55   C85   A    
C128  H50   S    
C49   O15   A    
C139  C140  A    
N5    N11   A    
C116  C117  A    
C118  C119  A    
C118  H42   S    
C31   C205  S    
Cr1   O1    S    
C180  H94   S    
C50   O20   A    
C94   N4    A    
C107  H33   S    
C1    O3    A    
C81   C87   A    
C62   C68   A    
C22   C46   A    
C129  C130  A    
C100  C101  A    
C240  H144  S    
C2    O1    A    
C170  C171  A    
C16   C22   A    
C50   O13   A    
C218  H125  S    
C166  C167  A    
N1    N7    A    
C66   H6    S    
C200  C201  A    
C169  C174  A    
C236  H140  S    
C159  H76   S    
C147  C148  A    
C161  H78   S    
C11   N11   A    
C225  H131  S    
C107  C108  A    
C49   O19   A    
C173  C174  A    
C41   C95   S    
C183  H96   S    
Cr3   O3    S    
Cr5   O11   S    
C127  C128  A    
C69   C75   A    
C104  C105  A    
C17   H17   S    
C99   C100  A    
C148  C149  A    
C85   C97   S    
C97   C98   A    
C226  C227  A    
C34   C223  S    
C26   H20   S    
C33   C217  S    
C228  H134  S    
C219  C220  A    
C23   C157  S    
C188  C189  A    
C30   H24   S    
C111  C112  A    
C121  C126  A    
C143  H63   S    
C181  C182  A    
C47   C49   S    
C4    O10   A    
C169  C170  A    
C172  C173  A    
C33   C39   A    
C34   C40   A    
C10   N10   A    
C119  H43   S    
C203  H113  S    
Cr3   O21   S    
C151  C156  A    
C77   C83   A    
Cr6   O26   S    
C194  H105  S    
Cr1   O19   S    
Cr4   O16   S    
C178  H92   S    
Cr5   O17   S    
C235  C236  A    
C10   C76   S    
C48   C51   S    
C81   H9    S    
C110  C111  A    
C12   C78   S    
C148  H67   S    
C210  H119  S    
C72   C78   A    
C95   N23   A    
C64   C70   A    
C145  C146  A    
C13   C37   A    
C193  C198  A    
Cr6   O12   S    
C96   N6    A    
C195  H106  S    
N3    N9    A    
C188  H100  S    
C92   N2    A    
C216  H124  S    
C222  H129  S    
C37   C91   S    
C160  H77   S    
N16   N22   A    
C212  H120  S    
C100  H27   S    
C233  C234  A    
C164  C165  A    
C27   H21   S    
C123  H46   S    
C75   C81   A    
C171  C172  A    
C158  H75   S    
C12   N18   A    
C103  C104  A    
Cr1   O7    S    
C36   C235  S    
C186  H99   S    
C202  C203  A    
C24   C163  S    
Cr4   O10   S    
C177  H91   S    
C141  C142  A    
C154  H72   S    
C125  C126  A    
C198  H109  S    
C189  C190  A    
C131  C132  A    
C71   C193  S    
C207  C208  A    
C200  H110  S    
C227  H133  S    
C115  C116  A    
C32   C38   A    
C157  C158  A    
C70   C76   A    
C140  C141  A    
C18   H18   S    
C206  C207  A    
C181  C186  A    
C197  H108  S    
C167  C168  A    
N13   N19   A    
C4    O6    A    
C157  C162  A    
C6    O12   A    
C239  H143  S    
C5    O4    A    
Cr2   O14   S    
C137  C138  A    
C233  H138  S    
C21   C145  S    
Cr6   O24   S    
C46   C50   S    
C115  C120  A    
C175  C176  A    
C1    O7    A    
C229  C234  A    
C52   O18   A    
C7    N13   A    
C191  C192  A    
C109  C114  A    
C14   H14   S    
C4    C59   S    
C196  C197  A    
C176  H90   S    
C93   N21   A    
C178  C179  A    
C129  H51   S    
C122  C123  A    
C17   C41   A    
C146  C147  A    
C78   C84   A    
C15   C21   A    
C2    O8    A    
C238  C239  A    
C80   H8    S    
C218  C219  A    
Cr5   O26   S    
C9    C75   S    
C190  C191  A    
C171  H86   S    
