data_str_m4_o22_o24_f0_acs.sym.16
_audit_creation_date              2013-03-05T15:47:19-0500
_audit_creation_method            fapswitch 2.2
_symmetry_space_group_name_H-M    P1
_symmetry_Int_Tables_number       1
_space_group_crystal_system       triclinic
_cell_length_a                    19.534511
_cell_length_b                    11.296609
_cell_length_c                    18.714642
_cell_angle_alpha                 89.690194
_cell_angle_beta                  89.588699
_cell_angle_gamma                 90.292499
_cell_volume                      4129.60849031

loop_
_atom_site_label
_atom_site_type_symbol
_atom_site_description
_atom_site_fract_x
_atom_site_fract_y
_atom_site_fract_z
_atom_type_partial_charge
O1    O     O_R   0.214130 0.708570 0.829890 -0.525035
O2    O     O_R   0.785870 0.708570 0.170110 -0.528565
O3    O     O_R   0.714130 0.208570 0.829890 -0.525035
O4    O     O_R   0.285870 0.208570 0.170110 -0.528565
O5    O     O_R   0.236050 0.959150 0.825270 -0.515193
O6    O     O_R   0.763950 0.959150 0.174730 -0.515369
O7    O     O_R   0.736050 0.459150 0.825270 -0.515194
O8    O     O_R   0.263950 0.459150 0.174730 -0.515370
C1    C     C_R   0.274088 0.040563 0.855369 0.532884
C2    C     C_R   0.725952 0.040886 0.144772 0.531438
C3    C     C_R   0.774088 0.540563 0.855369 0.532886
C4    C     C_R   0.225952 0.540886 0.144772 0.531436
O9    O     O_R   0.332100 0.076650 0.832310 -0.533397
O10   O     O_R   0.667900 0.076650 0.167690 -0.534220
O11   O     O_R   0.832100 0.576650 0.832310 -0.533393
O12   O     O_R   0.167900 0.576650 0.167690 -0.534221
O13   O     O_R   0.446500 0.918620 0.826240 -0.503992
O14   O     O_R   0.553500 0.918620 0.173760 -0.503039
O15   O     O_R   0.946500 0.418620 0.826240 -0.503991
O16   O     O_R   0.053500 0.418620 0.173760 -0.503040
C5    C     C_R   0.443135 0.815784 0.862576 0.537722
C6    C     C_R   0.556752 0.816434 0.137395 0.537719
C7    C     C_R   0.943135 0.315784 0.862576 0.537721
C8    C     C_R   0.056752 0.316434 0.137395 0.537719
O17   O     O_R   0.457310 0.715830 0.831280 -0.531079
O18   O     O_R   0.542690 0.715830 0.168720 -0.529947
O19   O     O_R   0.957310 0.215830 0.831280 -0.531077
O20   O     O_R   0.042690 0.215830 0.168720 -0.529948
O21   O     O_R   0.321000 0.623520 0.824130 -0.518975
O22   O     O_R   0.679000 0.623520 0.175870 -0.523397
O23   O     O_R   0.821000 0.123520 0.824130 -0.518962
O24   O     O_R   0.179000 0.123520 0.175870 -0.523398
C9    C     C_R   0.261224 0.640090 0.854122 0.539903
C10   C     C_R   0.738655 0.640560 0.145710 0.533843
C11   C     C_R   0.761224 0.140090 0.854122 0.539910
C12   C     C_R   0.238655 0.140560 0.145710 0.533842
O25   O     O_R   0.213990 0.710040 0.667000 -0.531860
O26   O     O_R   0.786010 0.710040 0.333000 -0.534516
O27   O     O_R   0.713990 0.210040 0.667000 -0.531850
O28   O     O_R   0.286010 0.210040 0.333000 -0.534515
O29   O     O_R   0.235920 0.960520 0.674260 -0.522591
O30   O     O_R   0.764080 0.960520 0.325740 -0.512949
O31   O     O_R   0.735920 0.460520 0.674260 -0.522594
O32   O     O_R   0.264080 0.460520 0.325740 -0.512947
C13   C     C_R   0.271942 0.045668 0.646410 0.533304
C14   C     C_R   0.726120 0.041336 0.354693 0.538724
C15   C     C_R   0.771941 0.545670 0.646410 0.533301
C16   C     C_R   0.226123 0.541342 0.354691 0.538724
O33   O     O_R   0.331960 0.078120 0.669410 -0.527149
O34   O     O_R   0.668040 0.078120 0.330590 -0.534782
O35   O     O_R   0.831960 0.578120 0.669410 -0.527143
O36   O     O_R   0.168040 0.578120 0.330590 -0.534783
O37   O     O_R   0.446360 0.919990 0.675230 -0.507439
O38   O     O_R   0.553640 0.919990 0.324770 -0.506753
O39   O     O_R   0.946360 0.419990 0.675230 -0.507438
O40   O     O_R   0.053640 0.419990 0.324770 -0.506752
C17   C     C_R   0.473946 0.823164 0.648571 0.535969
C18   C     C_R   0.531376 0.822486 0.354955 0.543051
C19   C     C_R   0.973945 0.323164 0.648570 0.535969
C20   C     C_R   0.031375 0.322487 0.354954 0.543048
O41   O     O_R   0.457170 0.717300 0.668380 -0.537934
O42   O     O_R   0.542830 0.717300 0.331620 -0.534138
O43   O     O_R   0.957170 0.217300 0.668380 -0.537972
O44   O     O_R   0.042830 0.217300 0.331620 -0.534140
O45   O     O_R   0.320870 0.624890 0.673130 -0.511502
O46   O     O_R   0.679130 0.624890 0.326870 -0.515017
O47   O     O_R   0.820870 0.124890 0.673130 -0.511510
O48   O     O_R   0.179130 0.124890 0.326870 -0.515015
C21   C     C_R   0.272150 0.677354 0.636479 0.543249
C22   C     C_R   0.738629 0.637049 0.355142 0.540572
C23   C     C_R   0.772155 0.177369 0.636478 0.543228
C24   C     C_R   0.238630 0.137048 0.355142 0.540571
Cr1   Cr    Cr6+3 0.229620 0.836040 0.749110 0.985347
Cr2   Cr    Cr6+3 0.770380 0.836040 0.250890 0.988144
Cr3   Cr    Cr6+3 0.729620 0.336040 0.749110 0.985347
Cr4   Cr    Cr6+3 0.270380 0.336040 0.250890 0.988146
Cr5   Cr    Cr6+3 0.387630 0.990680 0.750730 0.993566
Cr6   Cr    Cr6+3 0.612370 0.990680 0.249270 0.993537
Cr7   Cr    Cr6+3 0.887630 0.490680 0.750730 0.993574
Cr8   Cr    Cr6+3 0.112370 0.490680 0.249270 0.993537
Cr9   Cr    Cr6+3 0.386020 0.676590 0.749210 0.977648
Cr10  Cr    Cr6+3 0.613980 0.676590 0.250790 0.977949
Cr11  Cr    Cr6+3 0.886020 0.176590 0.749210 0.977652
Cr12  Cr    Cr6+3 0.113980 0.176590 0.250790 0.977949
O49   O     O_3   0.334430 0.834430 0.749680 -0.292693
O50   O     O_3   0.665570 0.834430 0.250320 -0.283133
O51   O     O_3   0.834430 0.334430 0.749680 -0.292700
O52   O     O_3   0.165570 0.334430 0.250320 -0.283130
C25   C     C_3   0.480179 0.908127 0.035960 -0.130490
C26   C     C_3   0.519422 0.908510 0.963512 -0.129758
C27   C     C_3   0.980179 0.408127 0.035960 -0.130489
C28   C     C_3   0.019422 0.408510 0.963512 -0.129758
C29   C     C_3   0.431254 0.809188 0.009006 -0.156803
C30   C     C_3   0.568382 0.810462 0.991032 -0.156485
C31   C     C_3   0.931254 0.309188 0.009006 -0.156803
C32   C     C_3   0.068382 0.310462 0.991032 -0.156485
H1    H     H_    0.376695 0.796423 0.021668 0.091104
H2    H     H_    0.622880 0.798135 0.978218 0.091400
H3    H     H_    0.876695 0.296423 0.021668 0.091104
H4    H     H_    0.122880 0.298135 0.978218 0.091400
H5    H     H_    0.465820 0.989184 0.065487 0.117146
H6    H     H_    0.533657 0.989933 0.933508 0.117873
H7    H     H_    0.965820 0.489184 0.065487 0.117146
H8    H     H_    0.033657 0.489933 0.933508 0.117873
C33   C     C_3   0.470116 0.813088 0.936750 0.050702
C34   C     C_3   0.529539 0.813646 0.063297 0.050840
C35   C     C_3   0.970117 0.313088 0.936750 0.050701
C36   C     C_3   0.029539 0.313646 0.063297 0.050841
C37   C     C_3   0.518153 0.715682 0.964269 0.038649
C38   C     C_3   0.481504 0.715250 0.036369 0.039524
C39   C     C_3   0.018153 0.215682 0.964269 0.038648
C40   C     C_3   0.981504 0.215250 0.036369 0.039524
C41   C     C_3   0.306792 0.527572 0.042321 -0.241864
C42   C     C_3   0.693231 0.526070 0.958184 -0.241547
C43   C     C_3   0.806792 0.027572 0.042321 -0.241864
C44   C     C_3   0.193231 0.026070 0.958184 -0.241547
H9    H     H_    0.315902 0.434527 0.055111 0.130550
H10   H     H_    0.684429 0.432759 0.946536 0.128977
H11   H     H_    0.815902 0.934527 0.055111 0.130550
H12   H     H_    0.184429 0.932759 0.946536 0.128977
H13   H     H_    0.343718 0.578686 0.073129 0.117526
H14   H     H_    0.656150 0.575362 0.926600 0.117020
H15   H     H_    0.843719 0.078686 0.073129 0.117526
H16   H     H_    0.156150 0.075362 0.926600 0.117020
C45   C     C_3   0.317320 0.551127 0.962242 -0.237998
C46   C     C_3   0.682599 0.550558 0.038048 -0.237001
C47   C     C_3   0.817320 0.051126 0.962242 -0.237998
C48   C     C_3   0.182599 0.050558 0.038048 -0.237001
H17   H     H_    0.361628 0.611648 0.954146 0.135931
H18   H     H_    0.638468 0.610842 0.045363 0.135870
H19   H     H_    0.861628 0.111648 0.954146 0.135930
H20   H     H_    0.138468 0.110842 0.045363 0.135870
H21   H     H_    0.329296 0.466778 0.934550 0.114741
H22   H     H_    0.670330 0.466442 0.066646 0.114377
H23   H     H_    0.829296 0.966778 0.934550 0.114744
H24   H     H_    0.170330 0.966442 0.066646 0.114377
H25   H     H_    0.663920 0.929654 0.045646 0.095009
H26   H     H_    0.336188 0.931076 0.956061 0.095679
H27   H     H_    0.163920 0.429654 0.045646 0.095009
H28   H     H_    0.836188 0.431076 0.956061 0.095679
H29   H     H_    0.705012 0.933123 0.923199 0.109974
H30   H     H_    0.295043 0.934528 0.078235 0.109389
H31   H     H_    0.205012 0.433123 0.923199 0.109973
H32   H     H_    0.795043 0.434528 0.078235 0.109389
C49   C     C_3   0.176772 0.517001 0.024954 -0.207099
C50   C     C_3   0.823199 0.518329 0.975713 -0.207360
C51   C     C_3   0.676772 0.017001 0.024954 -0.207099
C52   C     C_3   0.323199 0.018329 0.975713 -0.207359
C53   C     C_3   0.234864 0.704303 0.054494 -0.254419
C54   C     C_3   0.764850 0.704242 0.944502 -0.253691
C55   C     C_3   0.734864 0.204303 0.054494 -0.254418
C56   C     C_3   0.264850 0.204242 0.944502 -0.253692
C57   C     C_3   0.236822 0.570961 0.068584 0.063612
C58   C     C_3   0.763102 0.570724 0.931487 0.062844
C59   C     C_3   0.736822 0.070961 0.068584 0.063612
C60   C     C_3   0.263102 0.070724 0.931487 0.062845
H33   H     H_    0.188264 0.745375 0.078029 0.128666
H34   H     H_    0.811259 0.746272 0.920376 0.129155
H35   H     H_    0.688264 0.245376 0.078029 0.128666
H36   H     H_    0.311259 0.246272 0.920376 0.129152
H37   H     H_    0.279562 0.746591 0.079844 0.100131
H38   H     H_    0.719883 0.745287 0.919029 0.101000
H39   H     H_    0.779562 0.246591 0.079844 0.100131
H40   H     H_    0.219883 0.245287 0.919029 0.100999
C61   C     C_3   0.252148 0.607172 0.930884 0.055824
C62   C     C_3   0.747810 0.607739 0.069044 0.057828
C63   C     C_3   0.752148 0.107172 0.930884 0.055822
C64   C     C_3   0.247810 0.107739 0.069044 0.057828
C65   C     C_3   0.192007 0.521345 0.943741 -0.249924
C66   C     C_3   0.807965 0.522895 0.056885 -0.249435
C67   C     C_3   0.692007 0.021345 0.943741 -0.249923
C68   C     C_3   0.307965 0.022895 0.056885 -0.249435
C69   C     C_3   0.235134 0.722486 0.972851 -0.221430
C70   C     C_3   0.764867 0.723078 0.026041 -0.221593
C71   C     C_3   0.735134 0.222486 0.972851 -0.221430
C72   C     C_3   0.264867 0.223078 0.026041 -0.221592
H41   H     H_    0.271014 0.791935 0.957507 0.110656
H42   H     H_    0.729033 0.791996 0.040666 0.110522
H43   H     H_    0.771014 0.291935 0.957507 0.110656
H44   H     H_    0.229033 0.291996 0.040666 0.110522
H45   H     H_    0.182588 0.749294 0.957670 0.131417
H46   H     H_    0.817393 0.751179 0.040864 0.130291
H47   H     H_    0.682588 0.249294 0.957670 0.131417
H48   H     H_    0.317393 0.251179 0.040864 0.130291
H49   H     H_    0.629235 0.068706 0.034892 0.136573
H50   H     H_    0.370684 0.070941 0.965283 0.136400
H51   H     H_    0.129235 0.568706 0.034892 0.136573
H52   H     H_    0.870684 0.570941 0.965283 0.136400
H53   H     H_    0.145943 0.551887 0.914616 0.124106
H54   H     H_    0.854074 0.554449 0.085685 0.123575
H55   H     H_    0.645943 0.051887 0.914616 0.124106
H56   H     H_    0.354074 0.054449 0.085685 0.123575
C73   C     C_3   0.505125 0.699329 0.462808 -0.230647
C74   C     C_3   0.506845 0.698270 0.542929 -0.229169
C75   C     C_3   0.005119 0.199329 0.462805 -0.230644
C76   C     C_3   0.006837 0.198268 0.542926 -0.229160
H57   H     H_    0.543727 0.637780 0.444453 0.126463
H58   H     H_    0.467879 0.633088 0.560789 0.138719
H59   H     H_    0.043722 0.137778 0.444451 0.126465
H60   H     H_    0.967867 0.133091 0.560783 0.138681
H61   H     H_    0.456691 0.660410 0.443522 0.110159
H62   H     H_    0.555979 0.660776 0.561872 0.109923
H63   H     H_    0.956686 0.160413 0.443516 0.110162
H64   H     H_    0.055969 0.160765 0.561870 0.109928
H65   H     H_    0.618391 0.862415 0.451551 0.107002
H66   H     H_    0.394936 0.857447 0.552416 0.107285
H67   H     H_    0.118386 0.362364 0.451554 0.106999
H68   H     H_    0.894937 0.357452 0.552416 0.107283
H69   H     H_    0.609395 0.849972 0.579411 0.106110
H70   H     H_    0.403003 0.847226 0.425842 0.107468
H71   H     H_    0.109393 0.349960 0.579413 0.106106
H72   H     H_    0.903002 0.347245 0.425840 0.107467
C77   C     C_3   0.570932 0.896382 0.471710 -0.215538
C78   C     C_3   0.442538 0.894760 0.532317 -0.216335
C79   C     C_3   0.070935 0.396367 0.471708 -0.215538
C80   C     C_3   0.942540 0.394767 0.532317 -0.216335
C81   C     C_3   0.447985 0.891320 0.449908 -0.268301
C82   C     C_3   0.564573 0.892757 0.554884 -0.264930
C83   C     C_3   0.947986 0.391331 0.449908 -0.268298
C84   C     C_3   0.064574 0.392748 0.554883 -0.264928
C85   C     C_3   0.513552 0.827014 0.432556 0.063510
C86   C     C_3   0.498235 0.826731 0.572427 0.064333
C87   C     C_3   0.013550 0.327014 0.432554 0.063505
C88   C     C_3   0.998233 0.326730 0.572426 0.064335
H73   H     H_    0.451077 0.982669 0.427870 0.114459
H74   H     H_    0.561870 0.983873 0.576674 0.111364
H75   H     H_    0.951085 0.482681 0.427873 0.114467
H76   H     H_    0.061872 0.483865 0.576671 0.111364
H77   H     H_    0.446048 0.989141 0.548718 0.132458
H78   H     H_    0.567427 0.989395 0.454767 0.127272
H79   H     H_    0.946050 0.489146 0.548721 0.132460
H80   H     H_    0.067449 0.489381 0.454761 0.127280
C89   C     C_3   0.185426 0.655538 0.457939 -0.254519
C90   C     C_3   0.824175 0.582913 0.529732 -0.250838
C91   C     C_3   0.685421 0.155523 0.457943 -0.254514
C92   C     C_3   0.324176 0.082916 0.529733 -0.250841
H81   H     H_    0.133126 0.629672 0.443738 0.133407
H82   H     H_    0.838105 0.493111 0.526270 0.121110
H83   H     H_    0.633123 0.129643 0.443746 0.133397
H84   H     H_    0.338108 0.993116 0.526270 0.121112
H85   H     H_    0.192737 0.743101 0.434980 0.141547
H86   H     H_    0.863883 0.639092 0.555346 0.141093
H87   H     H_    0.692720 0.243089 0.434982 0.141546
H88   H     H_    0.363883 0.139095 0.555347 0.141092
C93   C     C_3   0.189907 0.660328 0.537490 -0.250339
C94   C     C_3   0.817222 0.619120 0.453692 -0.256689
C95   C     C_3   0.689910 0.160319 0.537493 -0.250325
C96   C     C_3   0.317223 0.119120 0.453692 -0.256692
H89   H     H_    0.166485 0.744118 0.554897 0.133667
H90   H     H_    0.834308 0.713079 0.449186 0.144402
H91   H     H_    0.666482 0.244106 0.554899 0.133668
H92   H     H_    0.334306 0.213079 0.449185 0.144385
H93   H     H_    0.156200 0.591329 0.561273 0.124233
H94   H     H_    0.850909 0.565995 0.418479 0.111971
H95   H     H_    0.656213 0.091311 0.561282 0.124247
H96   H     H_    0.350910 0.065998 0.418479 0.111974
H97   H     H_    0.703736 0.936989 0.488729 0.094764
H98   H     H_    0.231820 0.888230 0.554643 0.121167
H99   H     H_    0.203721 0.436995 0.488701 0.094774
H100  H     H_    0.731807 0.388236 0.554645 0.121175
H101  H     H_    0.747487 0.954950 0.593898 0.126882
H102  H     H_    0.254743 0.914062 0.432458 0.115609
H103  H     H_    0.247426 0.454940 0.593887 0.126823
H104  H     H_    0.754738 0.414066 0.432460 0.115616
C97   C     C_3   0.254505 0.470112 0.477450 -0.218558
C98   C     C_3   0.712170 0.472181 0.535414 -0.207609
C99   C     C_3   0.754515 0.970113 0.477456 -0.218572
C100  C     C_3   0.212176 0.972170 0.535413 -0.207604
C101  C     C_3   0.309515 0.652473 0.430828 -0.241504
C102  C     C_3   0.717019 0.687740 0.556875 -0.261462
C103  C     C_3   0.809503 0.152500 0.430817 -0.241479
C104  C     C_3   0.217011 0.187724 0.556877 -0.261468
C105  C     C_3   0.243983 0.579016 0.427845 0.054960
C106  C     C_3   0.755732 0.573844 0.569982 0.044979
C107  C     C_3   0.743981 0.079013 0.427846 0.054976
C108  C     C_3   0.255733 0.073838 0.569982 0.044983
H105  H     H_    0.353627 0.596356 0.415501 0.123753
H106  H     H_    0.669907 0.687470 0.590122 0.101427
H107  H     H_    0.853620 0.096406 0.415475 0.123739
H108  H     H_    0.169896 0.187438 0.590119 0.101429
H109  H     H_    0.307584 0.727405 0.392075 0.097994
H110  H     H_    0.748889 0.763826 0.572410 0.123869
H111  H     H_    0.807555 0.227435 0.392068 0.097994
H112  H     H_    0.248873 0.263815 0.572420 0.123878
C109  C     C_3   0.265540 0.636316 0.561229 0.074041
C110  C     C_3   0.742343 0.603346 0.431448 0.078338
C111  C     C_3   0.765549 0.136333 0.561225 0.074007
C112  C     C_3   0.242344 0.103341 0.431448 0.078336
C113  C     C_3   0.279220 0.501616 0.552782 -0.092621
C114  C     C_3   0.715925 0.477530 0.452027 -0.127002
C115  C     C_3   0.779253 0.001640 0.552776 -0.092607
C116  C     C_3   0.215929 0.977523 0.452026 -0.126997
C117  C     C_3   0.316300 0.698758 0.508364 -0.245730
C118  C     C_3   0.700057 0.691688 0.475762 -0.217096
C119  C     C_3   0.816298 0.198783 0.508353 -0.245747
C120  C     C_3   0.200056 0.191677 0.475763 -0.217099
H113  H     H_    0.306978 0.793230 0.506229 0.082680
H114  H     H_    0.710622 0.774602 0.450882 0.104938
H115  H     H_    0.806976 0.293255 0.506226 0.082678
H116  H     H_    0.210628 0.274592 0.450889 0.104942
H117  H     H_    0.368369 0.683341 0.526537 0.130994
H118  H     H_    0.645515 0.674198 0.469720 0.127712
H119  H     H_    0.868370 0.183355 0.526514 0.131013
H120  H     H_    0.145515 0.174189 0.469716 0.127707
H121  H     H_    0.288815 0.404742 0.451577 0.141610
H122  H     H_    0.658236 0.477993 0.554824 0.128825
H123  H     H_    0.788817 0.904734 0.451581 0.141613
H124  H     H_    0.158242 0.977969 0.554824 0.128826
C121  C     C_3   0.529815 0.596767 0.926938 -0.379744
H125  H     H_    0.479877 0.555337 0.913807 0.148940
H126  H     H_    0.559296 0.609706 0.876605 0.156923
H127  H     H_    0.554756 0.532906 0.963174 0.096877
C122  C     C_3   0.470007 0.595695 0.074163 -0.379111
H128  H     H_    0.520003 0.555072 0.087242 0.148879
H129  H     H_    0.440686 0.607480 0.124580 0.156985
H130  H     H_    0.444902 0.531656 0.038269 0.096768
C123  C     C_3   0.029815 0.096767 0.926938 -0.379744
H131  H     H_    0.979877 0.055336 0.913807 0.148942
H132  H     H_    0.059295 0.109706 0.876605 0.156923
H133  H     H_    0.054756 0.032906 0.963174 0.096877
C124  C     C_3   0.970006 0.095695 0.074163 -0.379111
H134  H     H_    0.020004 0.055072 0.087242 0.148879
H135  H     H_    0.940686 0.107480 0.124580 0.156985
H136  H     H_    0.944902 0.031656 0.038269 0.096768
C125  C     C_3   0.353778 0.456084 0.561966 -0.406194
H137  H     H_    0.376925 0.477521 0.613917 0.177189
H138  H     H_    0.353911 0.358128 0.558816 0.107034
H139  H     H_    0.388261 0.487802 0.518600 0.115939
C126  C     C_3   0.646620 0.441203 0.418513 -0.413038
H140  H     H_    0.655544 0.398885 0.365813 0.143815
H141  H     H_    0.617101 0.379351 0.453378 0.102276
H142  H     H_    0.612695 0.515528 0.409044 0.165018
C127  C     C_3   0.853829 0.956165 0.561922 -0.406367
H143  H     H_    0.877082 0.977935 0.613754 0.177236
H144  H     H_    0.853962 0.858199 0.558979 0.107146
H145  H     H_    0.888231 0.987652 0.518433 0.115900
C128  C     C_3   0.146622 0.941199 0.418513 -0.413033
H146  H     H_    0.155545 0.898888 0.365810 0.143818
H147  H     H_    0.117105 0.879342 0.453376 0.102276
H148  H     H_    0.112696 0.015525 0.409049 0.165010

loop_
_geom_bond_atom_site_label_1
_geom_bond_atom_site_label_2
_geom_bond_distance
_ccdc_geom_bond_type
O4    C12   1.285326 A    
O39   C19   1.320521 A    
C126  H141  1.109956 S    
C102  C106  1.515491 S    
C21   C109  1.491267 S    
C80   C83   1.545871 S    
Cr7   O51   2.043992 S    
C128  H146  1.111366 S    
C127  H143  1.102518 S    
H71   C84   1.103912 S    
C99   C107  1.552646 S    
C118  H114  1.062380 S    
O25   C21   1.323114 A    
C31   H3    1.098763 S    
C75   H63   1.105031 S    
C52   H50   1.114578 S    
O21   C9    1.306731 A    
C12   C64   1.493576 S    
C73   H61   1.105036 S    
C89   H81   1.096122 S    
O44   Cr12  2.101287 S    
C78   C86   1.533581 S    
C3    C58   1.480868 S    
C3    O11   1.273976 A    
C56   C60   1.529388 S    
C1    C60   1.480868 S    
C25   C34   1.530455 S    
C55   C59   1.528543 S    
C76   H64   1.110744 S    
C51   C59   1.557609 S    
H67   C79   1.072006 S    
C101  C117  1.551383 S    
C73   C74   1.500036 S    
C29   C38   1.537487 S    
C74   C86   1.564854 S    
O2    C10   1.285326 A    
C103  H107  1.109356 S    
C32   C36   1.546650 S    
O17   Cr9   2.127597 S    
C101  H109  1.112652 S    
C61   C65   1.536193 S    
C62   C70   1.561010 S    
C43   H15   1.091545 S    
O16   Cr8   2.002082 S    
C93   C109  1.570363 S    
C63   C67   1.536193 S    
C93   H93   1.107257 S    
C115  C127  1.557475 S    
O13   C5    1.343998 A    
O28   Cr4   2.113779 S    
O12   Cr8   2.097669 S    
O22   Cr10  1.982381 S    
C123  H133  1.104870 S    
O15   C7    1.343998 A    
C80   C88   1.533571 S    
O46   Cr10  2.003158 S    
C50   C58   1.558626 S    
O14   Cr6   2.002082 S    
C7    C35   1.488584 S    
C91   H87   1.084699 S    
C76   C88   1.564861 S    
H100  C98   1.085338 S    
C98   H122  1.114337 S    
C128  H148  1.086882 S    
O31   Cr3   1.982227 S    
C71   H47   1.110180 S    
C127  H145  1.107744 S    
C72   H48   1.110070 S    
C25   H5    1.108307 S    
O36   Cr8   2.122140 S    
Cr12  O52   2.043613 S    
C26   C33   1.530578 S    
C27   H7    1.108307 S    
O7    Cr3   2.000904 S    
C17   O41   1.290143 A    
C13   C108  1.499994 S    
C30   C37   1.536926 S    
C19   O43   1.290139 A    
C20   O44   1.288269 A    
Cr8   O52   2.052951 S    
C79   C84   1.560942 S    
C89   C93   1.493218 S    
O46   C22   1.287523 A    
C99   C115  1.536480 S    
C111  C119  1.559094 S    
C112  C120  1.540631 S    
C47   H19   1.109272 S    
C44   C60   1.532154 S    
C19   C88   1.498957 S    
C28   H8    1.108259 S    
C75   C76   1.500036 S    
C45   H17   1.109272 S    
C16   O36   1.293651 A    
C46   H22   1.112268 S    
C124  H134  1.109582 S    
C46   H18   1.109505 S    
C78   H77   1.112990 S    
O31   C15   1.294001 A    
C82   H74   1.110557 S    
C96   H92   1.113602 S    
C104  H112  1.100319 S    
O47   Cr11  2.003859 S    
C92   C96   1.485899 S    
C39   C40   1.522906 S    
H97   C99   1.077413 S    
C65   H53   1.110879 S    
H98   C100  1.085331 S    
C70   H46   1.110070 S    
C68   H56   1.111132 S    
O24   C12   1.304123 A    
O30   C14   1.297470 A    
C42   C46   1.534319 S    
C122  H129  1.109233 S    
C109  C113  1.554984 S    
H29   C67   1.100407 S    
C110  C118  1.540641 S    
O32   Cr4   1.993829 S    
C26   H6    1.108259 S    
C53   C57   1.528543 S    
O11   Cr7   2.110406 S    
H26   C52   1.084574 S    
O27   Cr3   2.122850 S    
O3    Cr3   2.101423 S    
Cr5   O49   2.043992 S    
C104  H108  1.107180 S    
H103  C113  1.113985 S    
C18   C85   1.492202 S    
C39   C123  1.534776 S    
C75   H59   1.083646 S    
C121  H126  1.109122 S    
C32   C39   1.536926 S    
O22   C10   1.304123 A    
C79   H80   1.098511 S    
C4    O12   1.277793 A    
C2    O10   1.277793 A    
C27   C28   1.552725 S    
C44   H12   1.090594 S    
C55   H35   1.112973 S    
C45   C61   1.543046 S    
O5    C1    1.311447 A    
C102  C118  1.556515 S    
C103  H111  1.112654 S    
O3    C11   1.288365 A    
O8    C4    1.313482 A    
C124  H136  1.105189 S    
Cr1   O49   2.047692 S    
C100  C108  1.570829 S    
C101  H105  1.109366 S    
C98   C114  1.562576 S    
C42   H10   1.090594 S    
C102  H110  1.100333 S    
C103  C119  1.551391 S    
C90   H86   1.112565 S    
C41   H9    1.092499 S    
C97   C105  1.552586 S    
C62   C66   1.536646 S    
C43   H11   1.092499 S    
C94   C110  1.533457 S    
C100  C116  1.562584 S    
C117  H117  1.089364 S    
C20   C87   1.492200 S    
C29   H1    1.098763 S    
C119  H119  1.089364 S    
O26   Cr2   2.113779 S    
C64   C68   1.536647 S    
Cr3   O51   2.047692 S    
C120  H120  1.089420 S    
C5    O17   1.304871 A    
O27   C23   1.323157 A    
O28   C24   1.300484 A    
O14   C6    1.344751 A    
C35   C39   1.538796 S    
C9    C61   1.491106 S    
C8    O20   1.303086 A    
C2    C59   1.477548 S    
C77   C82   1.560942 S    
C95   H91   1.103204 S    
C14   C107  1.479454 S    
O40   Cr8   1.976240 S    
C83   H75   1.110414 S    
O41   Cr9   2.094587 S    
H66   C78   1.083110 S    
C74   H58   1.105106 S    
C32   H4    1.099286 S    
O33   Cr5   2.119646 S    
C63   C71   1.560748 S    
O5    Cr1   2.000904 S    
O35   Cr7   2.119646 S    
C99   H123  1.110508 S    
H65   C77   1.072017 S    
O32   C16   1.297470 A    
C72   H44   1.084517 S    
C41   H13   1.091545 S    
C94   H90   1.113606 S    
Cr9   O49   2.052653 S    
C81   H73   1.110411 S    
C18   O42   1.288267 A    
Cr11  O51   2.052653 S    
O26   C22   1.300481 A    
O20   Cr12  2.127098 S    
C91   C107  1.542398 S    
C15   C106  1.500007 S    
H70   C81   1.107575 S    
C49   H51   1.114601 S    
C112  C116  1.555133 S    
C50   H52   1.114578 S    
C47   H23   1.112255 S    
C31   C40   1.537487 S    
C48   H24   1.112268 S    
C34   C38   1.540191 S    
C30   H2    1.099286 S    
C74   H62   1.110744 S    
H32   C66   1.100698 S    
C80   H79   1.112990 S    
C1    O9    1.273976 A    
C84   H76   1.110552 S    
C64   C72   1.561010 S    
C90   H82   1.053871 S    
C123  H132  1.109122 S    
C93   H89   1.103200 S    
C77   C85   1.554482 S    
C30   C34   1.546650 S    
C38   C122  1.535923 S    
O6    Cr2   1.991057 S    
C8    C36   1.489104 S    
C42   C58   1.532154 S    
C70   H42   1.084517 S    
C113  C125  1.557450 S    
C73   C85   1.554210 S    
O42   Cr10  2.101287 S    
C69   H45   1.110180 S    
O18   Cr10  2.127098 S    
C81   C85   1.509897 S    
C54   H38   1.105276 S    
O34   Cr6   2.122140 S    
C128  H147  1.109955 S    
C26   C30   1.555146 S    
C17   C86   1.498952 S    
C127  H144  1.108363 S    
O24   Cr12  1.982381 S    
C49   C65   1.547104 S    
O30   Cr2   1.993829 S    
C55   C71   1.540526 S    
C110  C114  1.555139 S    
O1    C9    1.288365 A    
C97   C113  1.536482 S    
H28   C50   1.084574 S    
O37   C17   1.320519 A    
C15   O35   1.303389 A    
C94   H94   1.108852 S    
Cr10  O50   2.043613 S    
O40   C20   1.306263 A    
O43   Cr11  2.094587 S    
O48   Cr12  2.003158 S    
O37   Cr5   1.987115 S    
O21   Cr9   1.973858 S    
O39   Cr7   1.987115 S    
O45   Cr9   2.003859 S    
C13   O33   1.303388 A    
C104  C108  1.515470 S    
C89   C105  1.542412 S    
O13   Cr5   2.000642 S    
C67   H55   1.110880 S    
O15   Cr7   2.000642 S    
C31   C35   1.546317 S    
C104  C120  1.556501 S    
O23   C11   1.306731 A    
C53   H37   1.104456 S    
C66   H54   1.111131 S    
C44   H16   1.091270 S    
C91   H83   1.096097 S    
C27   C36   1.530453 S    
H25   C51   1.085617 S    
C46   C62   1.543621 S    
O6    C2    1.313482 A    
C119  H115  1.084123 S    
H72   C83   1.107579 S    
C54   H34   1.112918 S    
C101  C105  1.523532 S    
O1    Cr1   2.101423 S    
C102  H106  1.107178 S    
O19   Cr11  2.127597 S    
O29   C13   1.293993 A    
C37   C38   1.522906 S    
C90   C94   1.485903 S    
C122  H128  1.109582 S    
C33   C37   1.538797 S    
C98   C106  1.570839 S    
O45   C21   1.318427 A    
H101  C115  1.113974 S    
H102  C116  1.107858 S    
O47   C23   1.318441 A    
C117  H113  1.084127 S    
C125  H137  1.102758 S    
C118  H118  1.089421 S    
C114  C126  1.550483 S    
C83   C87   1.509896 S    
C36   C40   1.540191 S    
C120  H116  1.062355 S    
C6    O18   1.303086 A    
C52   C60   1.558626 S    
C92   C108  1.532560 S    
C25   C26   1.552726 S    
C10   C62   1.493576 S    
C53   H33   1.112973 S    
C5    C33   1.488583 S    
C77   H78   1.098500 S    
O38   Cr6   1.976240 S    
C95   H95   1.107257 S    
C56   H36   1.112918 S    
C23   C111  1.491312 S    
C126  H140  1.111366 S    
C24   C112  1.478330 S    
C28   C32   1.555146 S    
C4    C57   1.477548 S    
C76   H60   1.105104 S    
O23   Cr11  1.973858 S    
C121  H125  1.109556 S    
C51   H49   1.114601 S    
O7    C3    1.311447 A    
H69   C82   1.103907 S    
C103  C107  1.523541 S    
C40   C124  1.535923 S    
C41   C45   1.532899 S    
C61   C69   1.560748 S    
C43   C47   1.532899 S    
C125  H138  1.108475 S    
C29   C33   1.546316 S    
O16   C8    1.344751 A    
C22   C110  1.478317 S    
C11   C63   1.491106 S    
C7    O19   1.304871 A    
Cr4   O52   2.047503 S    
O2    Cr2   2.114703 S    
O48   C24   1.287525 A    
C49   C57   1.557609 S    
C16   C105  1.479463 S    
Cr6   O50   2.052951 S    
H68   C80   1.083108 S    
C25   C29   1.555369 S    
C48   H20   1.109505 S    
C91   C95   1.493211 S    
C100  H124  1.114339 S    
C51   C67   1.547104 S    
C82   C86   1.524725 S    
O9    Cr5   2.110406 S    
C97   H121  1.110514 S    
H31   C65   1.100407 S    
C95   C111  1.570372 S    
C96   C112  1.533448 S    
C122  H130  1.105189 S    
C71   H43   1.085495 S    
C124  H135  1.109233 S    
C6    C34   1.489104 S    
O29   Cr1   1.982227 S    
C92   H84   1.053869 S    
C56   C72   1.541874 S    
C125  H139  1.107859 S    
H99   C97   1.077390 S    
C28   C35   1.530577 S    
C69   H41   1.085495 S    
C116  C128  1.550490 S    
H104  C114  1.107852 S    
Cr2   O50   2.047503 S    
C56   H40   1.105276 S    
C89   H85   1.084687 S    
C54   C70   1.541874 S    
C55   H39   1.104456 S    
C50   C66   1.547067 S    
O8    Cr4   1.991057 S    
C44   C48   1.534319 S    
C126  H142  1.086877 S    
C111  C115  1.554991 S    
C37   C121  1.534776 S    
C84   C88   1.524720 S    
H30   C68   1.100698 S    
O38   C18   1.306263 A    
C121  H127  1.104870 S    
C45   H21   1.112255 S    
O25   Cr1   2.122850 S    
H27   C49   1.085617 S    
C43   C59   1.532926 S    
C41   C57   1.532926 S    
C78   C81   1.545870 S    
C79   C87   1.554464 S    
C96   H96   1.108849 S    
C14   O34   1.293643 A    
C90   C106  1.532558 S    
C92   H88   1.112562 S    
C75   C87   1.554210 S    
C73   H57   1.083636 S    
C52   C68   1.547065 S    
C53   C69   1.540526 S    
O10   Cr6   2.097669 S    
C123  H131  1.109556 S    
O4    Cr4   2.114703 S    
C42   H14   1.091270 S    
C27   C31   1.555370 S    
C47   C63   1.543046 S    
C54   C58   1.529388 S    
C109  C117  1.559104 S    
C48   C64   1.543621 S    
