data_str_m4_o2_o17_f0_acs.sym.99
_audit_creation_date              2012-12-11T15:22:51-0500
_audit_creation_method            fapswitch 2.2
_symmetry_space_group_name_H-M    P1
_symmetry_Int_Tables_number       1
_space_group_crystal_system       triclinic
_cell_length_a                    22.549689
_cell_length_b                    13.017471
_cell_length_c                    26.9885
_cell_angle_alpha                 90.073721
_cell_angle_beta                  90.305113
_cell_angle_gamma                 89.880642
_cell_volume                      7922.06623785

loop_
_atom_site_label
_atom_site_type_symbol
_atom_type_description
_atom_site_fract_x
_atom_site_fract_y
_atom_site_fract_z
_atom_type_partial_charge
C1    C     C_R   0.720898 0.344801 0.178380 0.541240
C2    C     C_R   0.279093 0.344859 0.821601 0.541846
C3    C     C_R   0.220898 0.844801 0.178380 0.541182
C4    C     C_R   0.779092 0.844863 0.821601 0.540695
C5    C     C_R   0.475741 0.166216 0.871249 -0.011287
C6    C     C_R   0.524581 0.166168 0.128615 -0.011150
C7    C     C_R   0.975715 0.666192 0.871258 -0.011001
C8    C     C_R   0.024544 0.666219 0.128627 -0.011324
C9    C     C_R   0.511258 0.262095 0.106174 -0.027900
C10   C     C_R   0.488831 0.262165 0.893790 -0.028011
C11   C     C_R   0.011286 0.762171 0.106173 -0.028011
C12   C     C_R   0.988859 0.762129 0.893784 -0.027960
C13   C     C_R   0.505719 0.268098 0.053217 -0.013324
C14   C     C_R   0.494514 0.268138 0.946744 -0.013366
C15   C     C_R   0.005722 0.768152 0.053215 -0.013325
C16   C     C_R   0.994522 0.768126 0.946739 -0.013384
C17   C     C_R   0.503842 0.174614 0.025959 0.034480
C18   C     C_R   0.496816 0.174630 0.973859 0.034491
C19   C     C_R   0.003772 0.674649 0.025974 0.034522
C20   C     C_R   0.996751 0.674637 0.973872 0.034479
C21   C     C_R   0.503096 0.362380 0.026287 -0.025803
C22   C     C_R   0.496878 0.362403 0.973809 -0.025847
C23   C     C_R   0.003138 0.862421 0.026263 -0.025818
C24   C     C_R   0.996923 0.862406 0.973784 -0.025820
C25   C     C_R   0.738393 0.962850 0.128447 0.019650
C26   C     C_R   0.261588 0.962801 0.871504 0.019720
C27   C     C_R   0.238401 0.462848 0.128450 0.020060
C28   C     C_R   0.761590 0.462794 0.871504 0.019724
C29   C     C_R   0.788081 0.991584 0.100682 -0.140062
C30   C     C_R   0.211885 0.991872 0.899299 -0.139983
C31   C     C_R   0.288060 0.491686 0.100672 -0.139856
C32   C     C_R   0.711870 0.491804 0.899292 -0.139941
C33   C     C_R   0.788365 0.977714 0.049617 -0.124092
C34   C     C_R   0.211507 0.977745 0.950337 -0.124084
C35   C     C_R   0.288338 0.477814 0.049609 -0.124212
C36   C     C_R   0.711486 0.477667 0.950330 -0.124062
C37   C     C_R   0.739343 0.934315 0.025249 0.040064
C38   C     C_R   0.260440 0.933711 0.974664 0.039922
C39   C     C_R   0.239342 0.434301 0.025252 0.040050
C40   C     C_R   0.760434 0.433695 0.974663 0.039931
C41   C     C_R   0.690869 0.900583 0.053291 -0.122208
C42   C     C_R   0.308926 0.899643 0.946577 -0.122204
C43   C     C_R   0.190900 0.400467 0.053306 -0.122254
C44   C     C_R   0.808938 0.399687 0.946583 -0.122202
C45   C     C_R   0.553091 0.157849 0.177890 0.551667
C46   C     C_R   0.446968 0.157832 0.822077 0.551847
C47   C     C_R   0.053086 0.657858 0.177892 0.552424
C48   C     C_R   0.946966 0.657828 0.822077 0.551716
C49   C     C_R   0.690538 0.914216 0.104472 -0.127450
C50   C     C_R   0.309366 0.913600 0.895419 -0.127388
C51   C     C_R   0.190574 0.414110 0.104488 -0.127499
C52   C     C_R   0.809382 0.413645 0.895426 -0.127444
C53   C     C_R   0.716824 0.832082 0.949418 -0.121401
C54   C     C_R   0.282886 0.831202 0.050407 -0.121300
C55   C     C_R   0.216875 0.331998 0.949433 -0.121382
C56   C     C_R   0.782907 0.331226 0.050412 -0.121301
C57   C     C_R   0.725493 0.812173 0.899452 -0.124464
C58   C     C_R   0.274296 0.811451 0.100384 -0.124334
C59   C     C_R   0.225547 0.312091 0.899467 -0.124526
C60   C     C_R   0.774320 0.311479 0.100391 -0.124401
C61   C     C_R   0.779365 0.972103 0.890821 -0.138719
C62   C     C_R   0.220481 0.971810 0.109202 -0.138871
C63   C     C_R   0.279322 0.472115 0.890816 -0.138628
C64   C     C_R   0.720459 0.471796 0.109197 -0.138654
C65   C     C_R   0.768846 0.993775 0.940631 -0.124788
C66   C     C_R   0.230917 0.993310 0.059390 -0.124823
C67   C     C_R   0.268795 0.493787 0.940625 -0.124750
C68   C     C_R   0.730889 0.493289 0.059383 -0.124817
C69   C     C_R   0.740240 0.921359 0.970925 0.037183
C70   C     C_R   0.259482 0.920654 0.028990 0.037050
C71   C     C_R   0.240237 0.421328 0.970930 0.037176
C72   C     C_R   0.759476 0.420650 0.028990 0.037047
C73   C     C_R   0.759086 0.879765 0.870331 0.025760
C74   C     C_R   0.240801 0.879385 0.129614 0.025690
C75   C     C_R   0.259092 0.379736 0.870337 0.025666
C76   C     C_R   0.740802 0.379392 0.129615 0.025792
C77   C     C_R   0.530095 0.162296 0.371726 0.025723
C78   C     C_R   0.467702 0.161531 0.627528 0.026038
C79   C     C_R   0.042490 0.662609 0.375481 0.026106
C80   C     C_R   0.978215 0.662519 0.631253 0.023945
C81   C     C_R   0.502928 0.250253 0.391361 -0.147349
C82   C     C_R   0.492429 0.250321 0.607027 -0.145829
C83   C     C_R   0.001631 0.732062 0.395442 -0.150764
C84   C     C_R   0.992350 0.756398 0.609041 -0.141210
C85   C     C_R   0.487880 0.252970 0.441696 -0.131295
C86   C     C_R   0.504635 0.253460 0.556247 -0.117659
C87   C     C_R   0.992538 0.734243 0.446764 -0.137999
C88   C     C_R   0.011265 0.758594 0.559784 -0.118361
C89   C     C_R   0.730982 0.003197 0.178927 0.537974
C90   C     C_R   0.269033 0.003183 0.821073 0.538225
C91   C     C_R   0.230983 0.503195 0.178928 0.534968
C92   C     C_R   0.769034 0.503183 0.821073 0.537924
C93   C     C_R   0.502484 0.169640 0.472568 0.034548
C94   C     C_R   0.489758 0.169889 0.525732 0.043823
C95   C     C_R   0.025872 0.669956 0.478359 0.030721
C96   C     C_R   0.014924 0.667719 0.532074 0.042036
C97   C     C_R   0.528779 0.081970 0.452373 -0.126517
C98   C     C_R   0.465772 0.081258 0.546691 -0.125640
C99   C     C_R   0.067351 0.602202 0.458066 -0.116065
C100  C     C_R   0.005433 0.573424 0.555504 -0.126588
C101  C     C_R   0.541053 0.077434 0.402545 -0.120121
C102  C     C_R   0.456398 0.076163 0.597004 -0.120453
C103  C     C_R   0.075211 0.598049 0.407206 -0.123837
C104  C     C_R   0.987741 0.570733 0.604672 -0.124280
C105  C     C_R   0.731009 0.995910 0.379758 -0.014825
C106  C     C_R   0.265722 0.992647 0.620718 -0.013026
C107  C     C_R   0.235452 0.480135 0.375313 -0.009243
C108  C     C_R   0.767440 0.492761 0.620749 -0.018141
C109  C     C_R   0.685134 0.944890 0.404342 -0.146390
C110  C     C_R   0.311811 0.947100 0.594026 -0.147544
C111  C     C_R   0.228421 0.380846 0.393438 -0.157798
C112  C     C_R   0.815703 0.451734 0.594703 -0.143213
C113  C     C_R   0.683110 0.945271 0.455954 -0.182904
C114  C     C_R   0.310842 0.949614 0.542369 -0.185559
C115  C     C_R   0.232022 0.364465 0.444266 -0.168071
C116  C     C_R   0.815587 0.453164 0.542997 -0.183911
C117  C     C_R   0.727266 0.995584 0.483520 0.077353
C118  C     C_R   0.263856 0.997673 0.516876 0.073937
C119  C     C_R   0.241867 0.447520 0.476541 0.068555
C120  C     C_R   0.767912 0.497495 0.516956 0.071813
C121  C     C_R   0.768416 0.058767 0.459259 0.332789
C122  C     C_R   0.221686 0.055248 0.543301 0.327864
C123  C     C_R   0.251035 0.546803 0.458426 0.304966
C124  C     C_R   0.725094 0.554146 0.543025 0.331369
C125  C     C_R   0.772439 0.052208 0.407516 -0.108372
C126  C     C_R   0.220317 0.044254 0.594886 -0.106594
C127  C     C_R   0.243946 0.563075 0.407591 -0.124956
C128  C     C_R   0.721704 0.541479 0.594317 -0.104526
C129  C     C_R   0.794397 0.916654 0.546029 0.311310
C130  C     C_R   0.196792 0.928648 0.451261 0.309932
C131  C     C_R   0.307868 0.405489 0.546105 0.303553
C132  C     C_R   0.700610 0.423324 0.452624 0.312451
C133  C     C_R   0.721317 0.348520 0.321111 0.542796
C134  C     C_R   0.279426 0.346872 0.678328 0.544073
C135  C     C_R   0.221266 0.848816 0.320986 0.540579
C136  C     C_R   0.778443 0.848589 0.678980 0.542134
C137  C     C_R   0.802696 0.871385 0.592462 -0.131983
C138  C     C_R   0.190879 0.882115 0.404944 -0.138996
C139  C     C_R   0.314228 0.370623 0.594568 -0.124865
C140  C     C_R   0.693745 0.376578 0.406439 -0.131589
C141  C     C_R   0.707926 0.936267 0.620149 -0.167063
C142  C     C_R   0.290127 0.933259 0.382021 -0.169322
C143  C     C_R   0.211663 0.413442 0.612155 -0.169397
C144  C     C_R   0.790892 0.434171 0.381170 -0.169164
C145  C     C_R   0.696197 0.972850 0.572232 -0.181629
C146  C     C_R   0.298650 0.973518 0.429636 -0.192313
C147  C     C_R   0.203205 0.437307 0.562191 -0.165071
C148  C     C_R   0.801023 0.472379 0.429007 -0.184688
C149  C     C_R   0.739259 0.963140 0.535050 0.068390
C150  C     C_R   0.252555 0.970288 0.464610 0.061954
C151  C     C_R   0.250687 0.428187 0.529049 0.075896
C152  C     C_R   0.756219 0.466917 0.465008 0.065981
C153  C     C_R   0.761669 0.886160 0.630083 -0.019314
C154  C     C_R   0.235928 0.887649 0.369968 -0.025673
C155  C     C_R   0.267077 0.377770 0.627861 -0.018991
C156  C     C_R   0.736928 0.386438 0.370140 -0.020908
C157  C     C_R   0.554498 0.158262 0.321602 0.540457
C158  C     C_R   0.445104 0.157979 0.678204 0.540726
C159  C     C_R   0.056331 0.658222 0.322586 0.536964
C160  C     C_R   0.946339 0.658004 0.678709 0.541471
C161  C     C_R   0.728978 0.012158 0.325968 0.548617
C162  C     C_R   0.270253 0.010215 0.674411 0.548422
C163  C     C_R   0.231226 0.504031 0.323282 0.537865
C164  C     C_R   0.770508 0.510304 0.674408 0.548115
C165  C     C_R   0.519742 0.076091 0.101102 -0.144035
C166  C     C_R   0.481155 0.076121 0.898590 -0.144102
C167  C     C_R   0.019607 0.576137 0.101133 -0.144017
C168  C     C_R   0.981043 0.576105 0.898618 -0.143982
C169  C     C_R   0.508611 0.079127 0.050844 0.015180
C170  C     C_R   0.492456 0.079150 0.948825 0.015237
C171  C     C_R   0.008465 0.579167 0.050877 0.015236
C172  C     C_R   0.992324 0.579147 0.948856 0.015217
C173  C     C_R   0.496513 0.986280 0.974460 -0.127304
C174  C     C_R   0.505086 0.986271 0.025052 -0.127438
C175  C     C_R   0.996291 0.486288 0.974510 -0.127295
C176  C     C_R   0.004856 0.486299 0.025101 -0.127387
Cr1   Cr    Cr6+3 0.756570 0.170940 0.251190 0.999911
Cr2   Cr    Cr6+3 0.243430 0.170940 0.748810 0.998683
Cr3   Cr    Cr6+3 0.256570 0.670940 0.251190 0.999492
Cr4   Cr    Cr6+3 0.743430 0.670940 0.748810 0.999954
Cr5   Cr    Cr6+3 0.623740 0.299110 0.249580 1.010304
Cr6   Cr    Cr6+3 0.376260 0.299110 0.750420 1.009314
Cr7   Cr    Cr6+3 0.123740 0.799110 0.249580 1.009909
Cr8   Cr    Cr6+3 0.876260 0.799110 0.750420 1.009829
Cr9   Cr    Cr6+3 0.625990 0.036240 0.250480 1.006645
Cr10  Cr    Cr6+3 0.374010 0.036240 0.749520 1.006967
Cr11  Cr    Cr6+3 0.125990 0.536240 0.250480 1.007768
Cr12  Cr    Cr6+3 0.874010 0.536240 0.749520 1.007014
H1    H     H_    0.473871 0.002076 0.881099 0.129427
H2    H     H_    0.527313 0.002062 0.118485 0.129387
H3    H     H_    0.973709 0.502061 0.881141 0.129415
H4    H     H_    0.027117 0.502103 0.118529 0.129401
H5    H     H_    0.804935 0.025506 0.868858 0.115050
H6    H     H_    0.194964 0.025459 0.131238 0.114688
H7    H     H_    0.304854 0.525556 0.868846 0.115186
H8    H     H_    0.694927 0.525429 0.131228 0.115034
H9    H     H_    0.652205 0.867300 0.035594 0.101030
H10   H     H_    0.347528 0.865867 0.964231 0.101073
H11   H     H_    0.152256 0.367094 0.035620 0.101038
H12   H     H_    0.847550 0.365958 0.964243 0.101077
H13   H     H_    0.651239 0.892189 0.124742 0.122001
H14   H     H_    0.348671 0.891303 0.875127 0.121860
H15   H     H_    0.151298 0.392002 0.124769 0.121954
H16   H     H_    0.848701 0.391394 0.875139 0.121803
H17   H     H_    0.494218 0.316402 0.368148 0.116914
H18   H     H_    0.501296 0.317056 0.629878 0.112734
H19   H     H_    0.976520 0.783002 0.371528 0.112358
H20   H     H_    0.986028 0.827846 0.628880 0.119993
H21   H     H_    0.453798 0.015625 0.524028 0.097613
H22   H     H_    0.540943 0.016979 0.475373 0.097753
H23   H     H_    0.008660 0.501932 0.535079 0.096525
H24   H     H_    0.093658 0.552236 0.481604 0.107970
H25   H     H_    0.437398 0.006242 0.611489 0.128363
H26   H     H_    0.562065 0.008385 0.388782 0.130937
H27   H     H_    0.977956 0.496503 0.620722 0.126967
H28   H     H_    0.108001 0.545304 0.392614 0.136111
H29   H     H_    0.466535 0.320613 0.456741 0.122031
H30   H     H_    0.524589 0.321361 0.540768 0.093231
H31   H     H_    0.959426 0.785443 0.461728 0.110202
H32   H     H_    0.020086 0.831404 0.542516 0.093723
H33   H     H_    0.651035 0.904618 0.383727 0.128998
H34   H     H_    0.348260 0.909537 0.612990 0.124784
H35   H     H_    0.221167 0.316807 0.368486 0.122798
H36   H     H_    0.853338 0.418864 0.614147 0.136669
H37   H     H_    0.842448 0.827440 0.600339 0.115579
H38   H     H_    0.150698 0.841348 0.395340 0.126762
H39   H     H_    0.356489 0.340537 0.607074 0.129850
H40   H     H_    0.653583 0.334642 0.397784 0.121325
H41   H     H_    0.493046 0.913250 0.955295 0.099934
H42   H     H_    0.508915 0.913235 0.044100 0.099884
H43   H     H_    0.992766 0.413250 0.955357 0.099940
H44   H     H_    0.008621 0.413268 0.044163 0.099908
H45   H     H_    0.648102 0.903709 0.474144 0.091792
H46   H     H_    0.345832 0.911127 0.522332 0.093671
H47   H     H_    0.229205 0.286803 0.458217 0.141146
H48   H     H_    0.852012 0.417718 0.523515 0.096157
H49   H     H_    0.654196 0.009950 0.564272 0.124504
H50   H     H_    0.341274 0.006130 0.439489 0.123752
H51   H     H_    0.159865 0.461341 0.549143 0.112014
H52   H     H_    0.843441 0.506810 0.437909 0.124354
H53   H     H_    0.675462 0.946793 0.649141 0.120948
H54   H     H_    0.325371 0.937354 0.355009 0.126174
H55   H     H_    0.175319 0.420606 0.637976 0.122801
H56   H     H_    0.824769 0.441493 0.353122 0.122043
H57   H     H_    0.807163 0.093026 0.388522 0.126692
H58   H     H_    0.184708 0.079705 0.615301 0.131325
H59   H     H_    0.245473 0.639851 0.392405 0.117227
H60   H     H_    0.684379 0.574266 0.613802 0.128730
H61   H     H_    0.825388 0.030159 0.117897 0.122341
H62   H     H_    0.174629 0.030881 0.882139 0.122191
H63   H     H_    0.325343 0.530349 0.117876 0.122560
H64   H     H_    0.674603 0.530771 0.882127 0.122241
H65   H     H_    0.694969 0.774367 0.971631 0.098141
H66   H     H_    0.304708 0.773297 0.028120 0.098111
H67   H     H_    0.195062 0.274249 0.971653 0.098132
H68   H     H_    0.804749 0.273335 0.028130 0.098117
H69   H     H_    0.709646 0.739810 0.884628 0.132177
H70   H     H_    0.290150 0.739002 0.115145 0.132101
H71   H     H_    0.209741 0.239694 0.884651 0.132131
H72   H     H_    0.790193 0.239047 0.115157 0.131993
H73   H     H_    0.826549 0.002819 0.028977 0.089661
H74   H     H_    0.173319 0.003162 0.970995 0.089633
H75   H     H_    0.326497 0.503010 0.028962 0.089623
H76   H     H_    0.673283 0.503027 0.970985 0.089640
H77   H     H_    0.785310 0.065164 0.955955 0.099027
H78   H     H_    0.214453 0.064822 0.044159 0.099035
H79   H     H_    0.285214 0.565215 0.955940 0.099054
H80   H     H_    0.714402 0.564780 0.044146 0.099086
O1    O     O_R   0.769900 0.064540 0.196060 -0.531884
O2    O     O_R   0.230100 0.064540 0.803940 -0.532111
O3    O     O_R   0.269900 0.564540 0.196060 -0.533014
O4    O     O_R   0.730100 0.564540 0.803940 -0.532198
O5    O     O_R   0.574760 0.239320 0.300850 -0.500744
O6    O     O_R   0.425240 0.239320 0.699150 -0.502623
O7    O     O_R   0.074760 0.739320 0.300850 -0.500874
O8    O     O_R   0.925240 0.739320 0.699150 -0.501679
O9    O     O_R   0.566290 0.069580 0.305400 -0.527144
O10   O     O_R   0.433710 0.069580 0.694600 -0.527294
O11   O     O_R   0.066290 0.569580 0.305400 -0.517925
O12   O     O_R   0.933710 0.569580 0.694600 -0.527321
O13   O     O_R   0.680760 0.993330 0.302620 -0.503259
O14   O     O_R   0.319240 0.993330 0.697380 -0.501725
O15   O     O_R   0.180760 0.493330 0.302620 -0.504901
O16   O     O_R   0.819240 0.493330 0.697380 -0.501235
O17   O     O_3   0.668770 0.168760 0.250420 -0.242160
O18   O     O_3   0.331230 0.168760 0.749580 -0.241467
O19   O     O_3   0.168770 0.668760 0.250420 -0.242842
O20   O     O_3   0.831230 0.668760 0.749580 -0.240681
O21   O     O_R   0.750800 0.274080 0.199250 -0.504987
O22   O     O_R   0.249200 0.274080 0.800750 -0.504801
O23   O     O_R   0.250800 0.774080 0.199250 -0.504339
O24   O     O_R   0.749200 0.774080 0.800750 -0.505438
O25   O     O_R   0.669990 0.371670 0.194150 -0.534761
O26   O     O_R   0.330010 0.371670 0.805850 -0.534153
O27   O     O_R   0.169990 0.871670 0.194150 -0.534932
O28   O     O_R   0.830010 0.871670 0.805850 -0.534661
O29   O     O_R   0.574600 0.238480 0.197800 -0.495478
O30   O     O_R   0.425400 0.238480 0.802200 -0.495022
O31   O     O_R   0.074600 0.738480 0.197800 -0.494895
O32   O     O_R   0.925400 0.738480 0.802200 -0.495161
O33   O     O_R   0.566130 0.068680 0.194240 -0.525693
O34   O     O_R   0.433870 0.068680 0.805760 -0.525844
O35   O     O_R   0.066130 0.568680 0.194240 -0.524987
O36   O     O_R   0.933870 0.568680 0.805760 -0.526373
O37   O     O_R   0.680610 0.992490 0.199570 -0.500681
O38   O     O_R   0.319390 0.992490 0.800430 -0.500854
O39   O     O_R   0.180610 0.492490 0.199570 -0.502453
O40   O     O_R   0.819390 0.492490 0.800430 -0.501126
O41   O     O_R   0.770060 0.065440 0.307230 -0.527861
O42   O     O_R   0.229940 0.065440 0.692770 -0.530147
O43   O     O_R   0.270060 0.565440 0.307230 -0.520889
O44   O     O_R   0.729940 0.565440 0.692770 -0.529052
O45   O     O_R   0.750960 0.274920 0.302300 -0.503815
O46   O     O_R   0.249040 0.274920 0.697700 -0.504257
O47   O     O_R   0.250960 0.774920 0.302300 -0.503896
O48   O     O_R   0.749040 0.774920 0.697700 -0.502972
O49   O     O_R   0.670160 0.372580 0.305320 -0.519815
O50   O     O_R   0.329840 0.372580 0.694680 -0.522920
O51   O     O_R   0.170160 0.872580 0.305320 -0.519280
O52   O     O_R   0.829840 0.872580 0.694680 -0.519565
O53   O     O_3   0.837864 0.914047 0.509572 -0.550870
C177  C     C_3   0.896554 0.926341 0.527974 0.016792
H81   H     H_    0.925014 0.940269 0.495274 0.145232
H82   H     H_    0.911907 0.853507 0.544518 0.124784
C178  C     C_3   0.905289 0.016845 0.564661 -0.273283
H83   H     H_    0.879044 0.084448 0.553063 0.225311
H84   H     H_    0.890730 0.995407 0.602426 0.155646
C179  C     C_3   0.969931 0.048735 0.568482 -0.508764
H85   H     H_    0.997305 0.986035 0.584318 0.145233
H86   H     H_    0.973441 0.116420 0.593263 0.149154
H87   H     H_    0.987051 0.069423 0.531423 0.132462
O54   O     O_3   0.151013 0.927795 0.485803 -0.533811
C180  C     C_3   0.093619 0.942185 0.464879 0.030534
H88   H     H_    0.062574 0.951463 0.496167 0.140815
H89   H     H_    0.079117 0.872338 0.444993 0.135369
C181  C     C_3   0.086608 0.039059 0.432330 -0.266222
H90   H     H_    0.093629 0.108948 0.455021 0.196206
H91   H     H_    0.119030 0.040410 0.401611 0.169534
C182  C     C_3   0.024665 0.043518 0.409531 -0.502505
H92   H     H_    0.017547 0.976872 0.384461 0.157691
H93   H     H_    0.019525 0.115261 0.387728 0.148546
H94   H     H_    0.990747 0.042298 0.439096 0.132015
O55   O     O_3   0.355630 0.418257 0.514201 -0.572838
C183  C     C_3   0.406729 0.459934 0.537901 -0.010037
H95   H     H_    0.439347 0.476482 0.508350 0.136174
H96   H     H_    0.428009 0.402540 0.562123 0.131697
C184  C     C_3   0.395277 0.559567 0.567635 -0.275652
H97   H     H_    0.364841 0.611137 0.547272 0.209280
H98   H     H_    0.374383 0.541559 0.603711 0.164292
C185  C     C_3   0.452854 0.616423 0.578361 -0.501049
H99   H     H_    0.484261 0.566019 0.598902 0.147611
H100  H     H_    0.443382 0.685452 0.601217 0.145625
H101  H     H_    0.473417 0.641355 0.543158 0.140680
O56   O     O_3   0.655676 0.421982 0.487835 -0.542941
C186  C     C_3   0.597757 0.437950 0.468147 0.024388
H102  H     H_    0.568516 0.453485 0.500220 0.147173
H103  H     H_    0.581562 0.366484 0.450790 0.129691
C187  C     C_3   0.591072 0.529624 0.432011 -0.273765
H104  H     H_    0.614179 0.598340 0.446477 0.216353
H105  H     H_    0.610340 0.510944 0.395381 0.158843
C188  C     C_3   0.525980 0.556641 0.423590 -0.503404
H106  H     H_    0.501226 0.488964 0.409500 0.149846
H107  H     H_    0.522520 0.619227 0.395815 0.147307
H108  H     H_    0.505689 0.583229 0.458697 0.133480
O57   O     O_3   0.807962 0.114856 0.488275 -0.570807
C189  C     C_3   0.828442 0.206246 0.465969 -0.004156
H109  H     H_    0.826752 0.266223 0.494756 0.156938
H110  H     H_    0.799831 0.235213 0.435278 0.130934
C190  C     C_3   0.893144 0.193048 0.450082 -0.273713
H111  H     H_    0.920931 0.177308 0.483252 0.161957
H112  H     H_    0.897238 0.126701 0.424488 0.166751
C191  C     C_3   0.916962 0.288749 0.424608 -0.481822
H113  H     H_    0.892117 0.303199 0.389709 0.158563
H114  H     H_    0.964441 0.277234 0.415428 0.144555
H115  H     H_    0.913333 0.356417 0.449482 0.144323
O58   O     O_3   0.179361 0.111772 0.516864 -0.563204
C192  C     C_3   0.159361 0.200860 0.541961 -0.014913
H116  H     H_    0.156097 0.263802 0.514537 0.136410
H117  H     H_    0.190829 0.227937 0.570956 0.138549
C193  C     C_3   0.096887 0.184912 0.562459 -0.268702
H118  H     H_    0.064752 0.186158 0.531188 0.147570
H119  H     H_    0.093577 0.109230 0.581119 0.177402
C194  C     C_3   0.080076 0.269507 0.599036 -0.484843
H120  H     H_    0.110275 0.267670 0.631661 0.155831
H121  H     H_    0.034091 0.257892 0.612201 0.137143
H122  H     H_    0.082342 0.345893 0.580920 0.142057
O59   O     O_3   0.266402 0.623177 0.492323 -0.572641
C195  C     C_3   0.299477 0.705746 0.472512 0.000771
H123  H     H_    0.310733 0.754783 0.504587 0.165871
H124  H     H_    0.271703 0.753768 0.447993 0.140691
C196  C     C_3   0.357657 0.673431 0.446566 -0.283539
H125  H     H_    0.375126 0.600978 0.462373 0.205001
H126  H     H_    0.349225 0.659746 0.406551 0.158686
C197  C     C_3   0.405186 0.756375 0.451083 -0.496612
H127  H     H_    0.389131 0.829464 0.434854 0.156716
H128  H     H_    0.445406 0.732529 0.430636 0.146238
H129  H     H_    0.417339 0.769023 0.490539 0.139324
O60   O     O_3   0.683021 0.609617 0.516447 -0.563926
C198  C     C_3   0.666574 0.703059 0.539455 -0.004747
H130  H     H_    0.673869 0.764184 0.512051 0.155169
H131  H     H_    0.693924 0.725289 0.572228 0.128064
C199  C     C_3   0.600614 0.699822 0.552414 -0.268504
H132  H     H_    0.574404 0.685502 0.518182 0.160735
H133  H     H_    0.592256 0.635860 0.578640 0.163349
C200  C     C_3   0.579523 0.800301 0.575537 -0.483631
H134  H     H_    0.603733 0.815086 0.610708 0.159693
H135  H     H_    0.531506 0.795517 0.583838 0.140914
H136  H     H_    0.586245 0.864994 0.549454 0.140026
C201  C     C_R   0.508801 0.346332 0.860696 0.038182
C202  C     C_R   0.468927 0.419563 0.841577 -0.031664
C203  C     C_R   0.488570 0.495151 0.808822 -0.103094
C204  C     C_R   0.548095 0.498031 0.794763 -0.110661
C205  C     C_R   0.587970 0.425165 0.813348 -0.121363
C206  C     C_R   0.568481 0.349563 0.846172 -0.112845
H137  H     H_    0.422945 0.418438 0.852578 0.145572
H138  H     H_    0.457685 0.551674 0.794518 0.099399
H139  H     H_    0.563314 0.556621 0.769444 0.109837
H140  H     H_    0.633966 0.427009 0.802203 0.133095
H141  H     H_    0.599794 0.293302 0.860170 0.112963
C207  C     C_R   0.490943 0.346193 0.139351 0.038113
C208  C     C_R   0.530546 0.419475 0.158659 -0.031953
C209  C     C_R   0.510600 0.494900 0.191542 -0.103313
C210  C     C_R   0.451049 0.497539 0.205558 -0.109925
C211  C     C_R   0.411450 0.424601 0.186798 -0.121397
C212  C     C_R   0.431235 0.349191 0.153829 -0.113230
H142  H     H_    0.576561 0.418480 0.147733 0.145665
H143  H     H_    0.541274 0.551459 0.205994 0.099418
H144  H     H_    0.435597 0.555983 0.230988 0.111419
H145  H     H_    0.365442 0.426225 0.197928 0.132428
H146  H     H_    0.400135 0.292861 0.139705 0.112749
C213  C     C_R   0.008932 0.846207 0.860677 0.038031
C214  C     C_R   0.969135 0.919489 0.841485 -0.031860
C215  C     C_R   0.988874 0.994949 0.808699 -0.103243
C216  C     C_R   0.048418 0.997652 0.794681 -0.109875
C217  C     C_R   0.088218 0.924742 0.813342 -0.120408
C218  C     C_R   0.068634 0.849270 0.846198 -0.112645
H147  H     H_    0.923133 0.918490 0.852441 0.145656
H148  H     H_    0.958047 0.051504 0.794335 0.099085
H149  H     H_    0.063710 0.056135 0.769334 0.110090
H150  H     H_    0.134229 0.926447 0.802229 0.133438
H151  H     H_    0.099888 0.792966 0.860249 0.113164
C219  C     C_R   0.991121 0.846387 0.139347 0.038166
C220  C     C_R   0.030840 0.919582 0.158566 -0.031684
C221  C     C_R   0.011049 0.995109 0.191461 -0.102831
C222  C     C_R   0.951531 0.997956 0.205568 -0.110219
C223  C     C_R   0.911813 0.925127 0.186885 -0.121472
C224  C     C_R   0.931448 0.849598 0.153914 -0.113076
H152  H     H_    0.076825 0.918435 0.147559 0.145559
H153  H     H_    0.041815 0.051587 0.205850 0.099396
H154  H     H_    0.936200 0.056479 0.231007 0.110641
H155  H     H_    0.865828 0.926925 0.198076 0.133498
H156  H     H_    0.900259 0.793347 0.139854 0.112977
C225  C     C_R   0.488148 0.463925 0.949607 0.046427
C226  C     C_R   0.431201 0.507406 0.946905 -0.109641
C227  C     C_R   0.423580 0.607707 0.929359 -0.125362
C228  C     C_R   0.472739 0.665315 0.914813 -0.102825
C229  C     C_R   0.529607 0.622772 0.917785 -0.099804
C230  C     C_R   0.537303 0.522622 0.935319 -0.068925
H157  H     H_    0.393135 0.463749 0.958876 0.108840
H158  H     H_    0.379697 0.641198 0.927337 0.094479
H159  H     H_    0.466756 0.742944 0.901336 0.093743
H160  H     H_    0.567716 0.667383 0.906630 0.098073
H161  H     H_    0.581260 0.490213 0.937711 0.096937
C231  C     C_R   0.511613 0.463871 0.050635 0.046386
C232  C     C_R   0.568476 0.507265 0.053416 -0.109589
C233  C     C_R   0.575898 0.607541 0.071105 -0.125462
C234  C     C_R   0.526620 0.665212 0.085712 -0.102874
C235  C     C_R   0.469834 0.622759 0.082658 -0.099752
C236  C     C_R   0.462338 0.522633 0.064981 -0.069033
H162  H     H_    0.606631 0.463577 0.041376 0.109056
H163  H     H_    0.619717 0.640965 0.073182 0.094532
H164  H     H_    0.532446 0.742828 0.099295 0.093973
H165  H     H_    0.431632 0.667420 0.093856 0.098414
H166  H     H_    0.418445 0.490294 0.062521 0.096921
C237  C     C_R   0.988208 0.963905 0.949555 0.046434
C238  C     C_R   0.931264 0.007391 0.946826 -0.109567
C239  C     C_R   0.923653 0.107668 0.929246 -0.125390
C240  C     C_R   0.972821 0.165247 0.914692 -0.102886
C241  C     C_R   0.029685 0.122699 0.917689 -0.099882
C242  C     C_R   0.037371 0.022572 0.935258 -0.069031
H167  H     H_    0.893192 0.963759 0.958806 0.108881
H168  H     H_    0.879773 0.141164 0.927206 0.094463
H169  H     H_    0.966846 0.242860 0.901189 0.093725
H170  H     H_    0.067801 0.167286 0.906528 0.098096
H171  H     H_    0.081324 0.990154 0.937668 0.096951
C243  C     C_R   0.011662 0.963936 0.050586 0.046367
C244  C     C_R   0.068521 0.007357 0.053325 -0.109574
C245  C     C_R   0.075944 0.107649 0.070992 -0.125468
C246  C     C_R   0.026671 0.165313 0.085617 -0.102866
C247  C     C_R   0.969888 0.122836 0.082601 -0.099725
C248  C     C_R   0.962391 0.022693 0.064946 -0.069064
H172  H     H_    0.106671 0.963670 0.041276 0.109024
H173  H     H_    0.119761 0.141090 0.073040 0.094412
H174  H     H_    0.032499 0.242939 0.099185 0.093942
H175  H     H_    0.931690 0.167491 0.093813 0.098391
H176  H     H_    0.918499 0.990337 0.062516 0.096861

loop_
_geom_bond_atom_site_label_1
_geom_bond_atom_site_label_2
_ccdc_geom_bond_type
C196  C197  S    
C177  H82   S    
C7    C168  A    
C228  H159  S    
C55   C59   A    
C126  H58   S    
C229  C230  A    
C142  C146  A    
C77   C101  A    
C19   C20   A    
C141  H53   S    
C53   C69   A    
C38   C70   S    
C114  H46   S    
C180  H88   S    
C108  C164  S    
Cr9   O33   S    
C207  C208  A    
Cr11  O35   S    
C26   C50   A    
C95   C99   A    
C177  C178  S    
C78   C102  A    
C194  H121  S    
C176  H44   S    
C29   C33   A    
C100  C104  A    
C191  H113  S    
C187  C188  S    
C138  H38   S    
C3    C74   S    
C9    C13   A    
C192  C193  S    
C146  C150  A    
C131  C151  A    
C12   C16   A    
C231  C232  A    
C56   C72   A    
C169  C174  A    
C133  O45   A    
C134  O46   A    
C172  C175  A    
C141  C145  A    
C190  C191  S    
C138  C154  A    
C6    C165  A    
C21   C22   A    
C121  O57   S    
C112  H36   S    
C90   O2    A    
C41   C49   A    
C18   C170  A    
C165  C169  A    
C211  H145  S    
C188  H108  S    
C27   C31   A    
C24   C237  S    
C46   O30   A    
C28   C32   A    
Cr10  O18   S    
C62   C66   A    
C167  C171  A    
Cr4   O48   S    
C98   C102  A    
Cr5   O49   S    
C60   C76   A    
Cr7   O51   S    
C15   C19   A    
C246  H174  S    
C78   C82   A    
C102  H25   S    
C186  H102  S    
C54   C70   A    
C68   C72   A    
C165  H2    S    
C1    O21   A    
C243  C248  A    
C140  C156  A    
C21   C231  S    
C135  O47   A    
C214  C215  A    
C20   C172  A    
Cr11  O11   S    
C132  C152  A    
C247  C248  A    
C62   H6    S    
C194  H120  S    
C130  C138  A    
C124  C128  A    
C210  C211  A    
C109  H33   S    
Cr12  O12   S    
C180  C181  S    
C208  H142  S    
C198  H131  S    
C148  H52   S    
C84   C88   A    
C181  H90   S    
Cr9   O9    S    
C119  C123  A    
C26   C90   S    
C5    C46   S    
Cr1   O21   S    
C232  H162  S    
C191  H115  S    
C105  C125  A    
C7    C48   S    
C60   H72   S    
C8    C47   S    
C133  O49   A    
O57   C189  S    
C79   C159  S    
C136  C153  S    
Cr1   O17   S    
C66   C70   A    
C144  H56   S    
C31   C35   A    
C57   H69   S    
C245  C246  A    
C55   H67   S    
C238  H167  S    
C162  O42   A    
C243  C244  A    
C158  O10   A    
C197  H127  S    
C157  O9    A    
C61   C65   A    
C129  C137  A    
O53   C177  S    
C226  H157  S    
C39   C71   S    
C117  C149  S    
C201  C202  A    
C48   O32   A    
C103  H28   S    
C55   C71   A    
C2    C75   S    
C193  H118  S    
C91   O39   A    
Cr12  O16   S    
C122  C126  A    
C208  C209  A    
C159  O11   A    
C147  C151  A    
C220  C221  A    
C160  O12   A    
C6    C9    A    
Cr5   O5    S    
C129  C149  A    
C222  C223  A    
C58   H70   S    
Cr1   O41   S    
C64   C68   A    
Cr5   O25   S    
C204  C205  A    
C56   C60   A    
Cr3   O43   S    
C184  H98   S    
C215  H148  S    
C199  C200  S    
C164  O16   A    
C14   C22   A    
C86   H30   S    
Cr3   O19   S    
C178  H84   S    
C137  H37   S    
C123  O59   S    
C189  H109  S    
C85   C93   A    
C78   C158  S    
C146  H50   S    
C195  H123  S    
C87   C95   A    
C130  C150  A    
C212  H146  S    
C27   C91   S    
C226  C227  A    
C45   O33   A    
Cr12  O40   S    
C110  C114  A    
C44   C52   A    
C209  H143  S    
C31   H63   S    
Cr9   O37   S    
C54   H66   S    
C79   C103  A    
C207  C212  A    
Cr10  O34   S    
C11   C15   A    
C181  C182  S    
C27   C51   A    
C7    C12   A    
C98   H21   S    
C49   H13   S    
C140  H40   S    
C30   C34   A    
C13   C21   A    
Cr1   O45   S    
O54   C180  S    
C41   H9    S    
C99   C103  A    
C10   C14   A    
C200  H136  S    
C241  H170  S    
C142  H54   S    
C142  C154  A    
C116  C120  A    
C221  C222  A    
C29   H61   S    
C144  C156  A    
C129  O53   S    
Cr8   O52   S    
C121  C125  A    
C37   C69   S    
C84   H20   S    
C123  C127  A    
C213  C214  A    
C139  C155  A    
C17   C18   A    
C202  C203  A    
C135  O51   A    
C5    C166  A    
C108  C128  A    
C187  H105  S    
C174  H42   S    
C189  C190  S    
C4    C73   S    
C42   C50   A    
C193  C194  S    
C113  C117  A    
C223  H155  S    
C122  O58   S    
C211  C212  A    
C186  H103  S    
C107  C163  S    
C44   H12   S    
C115  C119  A    
C56   H68   S    
C209  C210  A    
C143  H55   S    
C93   C97   A    
C112  C116  A    
C58   C74   A    
C199  H132  S    
C196  H126  S    
C105  C109  A    
C40   C72   S    
C203  H138  S    
C1    C76   S    
C107  C111  A    
C148  C152  A    
C183  H96   S    
C179  H85   S    
Cr1   O1    S    
C221  H153  S    
C26   C30   A    
C164  O44   A    
C147  H51   S    
C171  C176  A    
C100  H23   S    
C1    O25   A    
C166  H1    S    
C2    O22   A    
C194  H122  S    
C3    O27   A    
Cr8   O32   S    
C184  C185  S    
C141  C153  A    
C63   C75   A    
C136  O52   A    
C195  C196  S    
C64   H8    S    
Cr7   O19   S    
C191  H114  S    
C177  H81   S    
C105  C161  S    
C247  H175  S    
C37   C41   A    
C240  C241  A    
C192  H117  S    
C131  C139  A    
C218  H151  S    
C40   C44   A    
C182  H94   S    
C130  O54   S    
C183  H95   S    
O56   C186  S    
C244  C245  A    
C219  C220  A    
Cr9   O13   S    
C81   C85   A    
Cr10  O10   S    
C190  H112  S    
C9    C207  S    
C83   C87   A    
C88   C96   A    
C205  C206  A    
C6    C45   S    
C61   H5    S    
Cr2   O22   S    
C133  C156  S    
C248  H176  S    
Cr6   O30   S    
C125  H57   S    
C241  C242  A    
Cr7   O27   S    
C80   C84   A    
C65   H77   S    
C115  H47   S    
C216  C217  A    
Cr2   O18   S    
C113  H45   S    
C188  H107  S    
C93   C94   S    
C135  C154  S    
C80   C104  A    
C12   C213  S    
C157  O5    A    
C92   O4    A    
C161  O13   A    
C80   C160  S    
C94   C98   A    
C233  H163  S    
C33   H73   S    
C139  H39   S    
C35   H75   S    
C201  C206  A    
C118  C150  S    
C14   C18   A    
C224  H156  S    
C237  C242  A    
C222  H154  S    
Cr12  O20   S    
C244  H172  S    
C160  O8    A    
C132  O56   S    
C82   H18   S    
Cr6   O50   S    
Cr5   O17   S    
Cr6   O6    S    
C50   H14   S    
C234  H164  S    
C227  C228  A    
C25   C29   A    
C59   H71   S    
Cr2   O42   S    
C53   H65   S    
Cr6   O26   S    
C179  H87   S    
Cr7   O31   S    
C238  C239  A    
C51   H15   S    
C185  H99   S    
C180  H89   S    
C23   C243  S    
C181  H91   S    
C184  H97   S    
C53   C57   A    
C92   O40   A    
C185  H101  S    
C61   C73   A    
C82   C86   A    
C33   C37   A    
C108  C112  A    
C52   H16   S    
C45   O29   A    
C47   O31   A    
C4    O24   A    
C239  C240  A    
C8    C167  A    
C89   O37   A    
C182  H92   S    
C183  C184  S    
C42   H10   S    
C101  H26   S    
C116  H48   S    
Cr10  O38   S    
C111  H35   S    
C185  H100  S    
C220  H152  S    
Cr4   O4    S    
C197  H128  S    
Cr4   O24   S    
Cr3   O3    S    
Cr5   O29   S    
C227  H158  S    
C63   H7    S    
C127  H59   S    
C163  O43   A    
Cr2   O46   S    
C32   C36   A    
C193  H119  S    
C217  H150  S    
Cr11  O15   S    
C198  H130  S    
C104  H27   S    
C197  H129  S    
C213  C218  A    
C13   C17   A    
C132  C140  A    
C106  C126  A    
C25   C89   S    
C143  C155  A    
Cr8   O28   S    
C202  H137  S    
C242  H171  S    
C79   C83   A    
C43   C51   A    
C240  H169  S    
C65   C69   A    
C67   C71   A    
C106  C162  S    
C178  H83   S    
C25   C49   A    
C68   H80   S    
C23   C24   A    
C88   H32   S    
C168  C172  A    
C195  H124  S    
C203  C204  A    
C62   C74   A    
C205  H140  S    
C145  C149  A    
Cr2   O2    S    
C170  C173  A    
Cr8   O8    S    
C198  C199  S    
O55   C183  S    
C223  C224  A    
C2    O26   A    
C35   C39   A    
C95   C96   S    
C3    O23   A    
C144  C148  A    
C124  O60   S    
C134  O50   A    
C196  H125  S    
C173  C174  A    
C136  O48   A    
C143  C147  A    
C167  H4    S    
C168  H3    S    
C89   O1    A    
C36   H76   S    
C19   C171  A    
C38   C42   A    
C91   O3    A    
C200  H135  S    
C118  C122  A    
Cr12  O36   S    
C17   C169  A    
C235  H165  S    
C57   C73   A    
C96   C100  A    
C219  C224  A    
C85   H29   S    
C117  C121  A    
C86   C94   A    
C106  C110  A    
Cr11  O19   S    
C175  C176  A    
C145  H49   S    
C83   H19   S    
Cr3   O23   S    
C77   C81   A    
Cr10  O14   S    
C246  C247  A    
C216  H149  S    
C66   H78   S    
C16   C20   A    
C15   C23   A    
Cr8   O20   S    
C225  C226  A    
C158  O6    A    
C199  H133  S    
C99   H24   S    
C162  O14   A    
C119  C151  S    
C214  H147  S    
C63   C67   A    
C120  C152  S    
C175  H43   S    
C97   H22   S    
C34   H74   S    
C137  C153  A    
C128  H60   S    
Cr4   O44   S    
C36   C40   A    
C179  H86   S    
C237  C238  A    
C228  C229  A    
C39   C43   A    
C239  H168  S    
C30   H62   S    
Cr4   O20   S    
C178  C179  S    
C46   O34   A    
Cr6   O18   S    
C11   C219  S    
C67   H79   S    
C22   C225  S    
Cr7   O7    S    
C234  C235  A    
C229  H160  S    
C232  C233  A    
C64   C76   A    
C225  C230  A    
C28   C92   S    
C235  C236  A    
C192  H116  S    
C114  C118  A    
C173  H41   S    
C206  H141  S    
C182  H93   S    
C163  O15   A    
C204  H139  S    
C87   H31   S    
C161  O41   A    
C245  H173  S    
C59   C75   A    
O58   C192  S    
C81   H17   S    
C190  H111  S    
C54   C58   A    
C134  C155  S    
C34   C38   A    
C47   O35   A    
C4    O28   A    
C48   O36   A    
C43   H11   S    
C236  H166  S    
C90   O38   A    
C210  H144  S    
C109  C113  A    
C188  H106  S    
C32   H64   S    
C233  C234  A    
C230  H161  S    
C159  O7    A    
Cr11  O39   S    
C5    C10   A    
C231  C236  A    
C28   C52   A    
C8    C11   A    
C10   C201  S    
C166  C170  A    
C200  H134  S    
C187  H104  S    
C189  H110  S    
Cr3   O47   S    
C217  C218  A    
C120  C124  A    
C186  C187  S    
C16   C24   A    
C215  C216  A    
Cr9   O17   S    
O60   C198  S    
C111  C115  A    
C107  C127  A    
C131  O55   S    
C97   C101  A    
O59   C195  S    
C77   C157  S    
C110  H34   S    
