data_str_m4_o22_o22_f0_acs.sym.18
_audit_creation_date              2013-03-05T15:47:08-0500
_audit_creation_method            fapswitch 2.2
_symmetry_space_group_name_H-M    P1
_symmetry_Int_Tables_number       1
_space_group_crystal_system       triclinic
_cell_length_a                    19.573082
_cell_length_b                    11.360643
_cell_length_c                    18.685353
_cell_angle_alpha                 90.000096
_cell_angle_beta                  91.122518
_cell_angle_gamma                 90.000064
_cell_volume                      4154.12998435

loop_
_atom_site_label
_atom_site_type_symbol
_atom_site_description
_atom_site_fract_x
_atom_site_fract_y
_atom_site_fract_z
_atom_type_partial_charge
O1    O     O_R   0.957210 0.449410 0.665480 -0.521145
O2    O     O_R   0.042790 0.449410 0.334520 -0.521148
O3    O     O_R   0.457210 0.949410 0.665480 -0.521146
O4    O     O_R   0.542790 0.949410 0.334520 -0.521146
O5    O     O_R   0.820730 0.541240 0.668250 -0.511046
O6    O     O_R   0.179270 0.541240 0.331750 -0.511047
O7    O     O_R   0.320730 0.041240 0.668250 -0.511047
O8    O     O_R   0.679270 0.041240 0.331750 -0.511040
C1    C     C_R   0.760908 0.523799 0.639336 0.549991
C2    C     C_R   0.239092 0.523799 0.360664 0.549992
C3    C     C_R   0.260908 0.023799 0.639336 0.549990
C4    C     C_R   0.739092 0.023798 0.360664 0.549997
O9    O     O_R   0.714240 0.455060 0.663710 -0.528406
O10   O     O_R   0.285760 0.455060 0.336290 -0.528406
O11   O     O_R   0.214240 0.955060 0.663710 -0.528406
O12   O     O_R   0.785760 0.955060 0.336290 -0.528408
O13   O     O_R   0.736780 0.204870 0.675910 -0.502063
O14   O     O_R   0.263220 0.204870 0.324090 -0.502057
O15   O     O_R   0.236780 0.704870 0.675910 -0.502056
O16   O     O_R   0.763220 0.704870 0.324090 -0.502067
C5    C     C_R   0.773546 0.120683 0.649659 0.565940
C6    C     C_R   0.226454 0.120683 0.350341 0.565948
C7    C     C_R   0.273546 0.620683 0.649659 0.565945
C8    C     C_R   0.726453 0.620683 0.350341 0.565971
O17   O     O_R   0.833070 0.087590 0.673490 -0.523175
O18   O     O_R   0.166930 0.087590 0.326510 -0.523174
O19   O     O_R   0.333070 0.587590 0.673490 -0.523175
O20   O     O_R   0.666930 0.587590 0.326510 -0.523154
O21   O     O_R   0.946890 0.246800 0.676300 -0.512967
O22   O     O_R   0.053110 0.246800 0.323700 -0.512968
O23   O     O_R   0.446890 0.746800 0.676300 -0.512967
O24   O     O_R   0.553110 0.746800 0.323700 -0.512973
C9    C     C_R   0.968562 0.342287 0.644877 0.548552
C10   C     C_R   0.031438 0.342287 0.355123 0.548557
C11   C     C_R   0.468561 0.842287 0.644877 0.548553
C12   C     C_R   0.531438 0.842287 0.355123 0.548550
O25   O     O_R   0.956650 0.457120 0.827980 -0.501445
O26   O     O_R   0.043350 0.457120 0.172020 -0.501431
O27   O     O_R   0.456650 0.957120 0.827980 -0.501441
O28   O     O_R   0.543350 0.957120 0.172020 -0.501439
O29   O     O_R   0.820220 0.548390 0.818890 -0.496637
O30   O     O_R   0.179780 0.548390 0.181110 -0.496635
O31   O     O_R   0.320220 0.048390 0.818890 -0.496636
O32   O     O_R   0.679780 0.048390 0.181110 -0.496596
C13   C     C_R   0.771423 0.496076 0.856881 0.539785
C14   C     C_R   0.228576 0.496071 0.143119 0.539780
C15   C     C_R   0.271423 0.996074 0.856880 0.539783
C16   C     C_R   0.728587 0.996112 0.143112 0.539758
O33   O     O_R   0.713680 0.462770 0.826210 -0.521404
O34   O     O_R   0.286320 0.462770 0.173790 -0.521401
O35   O     O_R   0.213680 0.962770 0.826210 -0.521403
O36   O     O_R   0.786320 0.962770 0.173790 -0.521399
O37   O     O_R   0.736260 0.212010 0.826560 -0.492074
O38   O     O_R   0.263740 0.212010 0.173440 -0.492050
O39   O     O_R   0.236260 0.712010 0.826560 -0.492040
O40   O     O_R   0.763740 0.712010 0.173440 -0.492080
C17   C     C_R   0.777829 0.140240 0.861003 0.600879
C18   C     C_R   0.222165 0.140254 0.138990 0.600827
C19   C     C_R   0.277834 0.640252 0.861010 0.600823
C20   C     C_R   0.722157 0.640277 0.138981 0.600842
O41   O     O_R   0.832520 0.095300 0.836000 -0.518536
O42   O     O_R   0.167480 0.095300 0.164000 -0.518519
O43   O     O_R   0.332520 0.595300 0.836000 -0.518529
O44   O     O_R   0.667480 0.595300 0.164000 -0.518425
O45   O     O_R   0.946380 0.253940 0.826940 -0.524729
O46   O     O_R   0.053620 0.253940 0.173060 -0.524742
O47   O     O_R   0.446380 0.753940 0.826940 -0.524733
O48   O     O_R   0.553620 0.753940 0.173060 -0.524745
C21   C     C_R   0.971076 0.352694 0.852685 0.574955
C22   C     C_R   0.028923 0.352694 0.147315 0.574996
C23   C     C_R   0.471076 0.852694 0.852685 0.574967
C24   C     C_R   0.528925 0.852694 0.147314 0.574960
Cr1   Cr    Cr6+3 0.885690 0.492860 0.745310 1.023601
Cr2   Cr    Cr6+3 0.114310 0.492860 0.254690 1.023592
Cr3   Cr    Cr6+3 0.385690 0.992860 0.745310 1.023599
Cr4   Cr    Cr6+3 0.614310 0.992860 0.254690 1.023621
Cr5   Cr    Cr6+3 0.729880 0.332270 0.748190 1.029548
Cr6   Cr    Cr6+3 0.270120 0.332270 0.251810 1.029557
Cr7   Cr    Cr6+3 0.229880 0.832270 0.748190 1.029562
Cr8   Cr    Cr6+3 0.770120 0.832270 0.251810 1.029528
Cr9   Cr    Cr6+3 0.888120 0.178590 0.753010 1.008106
Cr10  Cr    Cr6+3 0.111880 0.178590 0.246990 1.008103
Cr11  Cr    Cr6+3 0.388120 0.678590 0.753010 1.008105
Cr12  Cr    Cr6+3 0.611880 0.678590 0.246990 1.008140
O49   O     O_3   0.834560 0.334570 0.748840 -0.310331
O50   O     O_3   0.165440 0.334570 0.251160 -0.310339
O51   O     O_3   0.334560 0.834570 0.748840 -0.310337
O52   O     O_3   0.665440 0.834570 0.251160 -0.310328
C25   C     C_3   0.687206 0.132224 0.463753 -0.234558
C26   C     C_3   0.312794 0.132224 0.536246 -0.234558
C27   C     C_3   0.187206 0.632224 0.463753 -0.234559
C28   C     C_3   0.812794 0.632224 0.536246 -0.234557
H1    H     H_    0.637944 0.096162 0.447477 0.133703
H2    H     H_    0.362056 0.096162 0.552523 0.133703
H3    H     H_    0.137944 0.596162 0.447477 0.133703
H4    H     H_    0.862056 0.596162 0.552523 0.133703
H5    H     H_    0.687885 0.220364 0.438448 0.110966
H6    H     H_    0.312115 0.220364 0.561552 0.110963
H7    H     H_    0.187885 0.720364 0.438448 0.110963
H8    H     H_    0.812115 0.720364 0.561552 0.110963
C29   C     C_3   0.691918 0.145493 0.545088 -0.234676
C30   C     C_3   0.308082 0.145493 0.454912 -0.234676
C31   C     C_3   0.191918 0.645493 0.545088 -0.234676
C32   C     C_3   0.808082 0.645493 0.454912 -0.234679
H9    H     H_    0.686968 0.237548 0.560422 0.136185
H10   H     H_    0.313032 0.237548 0.439579 0.136184
H11   H     H_    0.186968 0.737548 0.560422 0.136184
H12   H     H_    0.813032 0.737548 0.439578 0.136183
H13   H     H_    0.647583 0.102127 0.569829 0.114961
H14   H     H_    0.352416 0.102127 0.430171 0.114962
H15   H     H_    0.147584 0.602127 0.569829 0.114963
H16   H     H_    0.852416 0.602126 0.430171 0.114959
H17   H     H_    0.723026 0.869062 0.462392 0.106723
H18   H     H_    0.276974 0.869062 0.537607 0.106723
H19   H     H_    0.223026 0.369062 0.462392 0.106723
H20   H     H_    0.776974 0.369062 0.537607 0.106723
H21   H     H_    0.704322 0.924663 0.582765 0.116587
H22   H     H_    0.295677 0.924663 0.417235 0.116588
H23   H     H_    0.204322 0.424664 0.582765 0.116587
H24   H     H_    0.795677 0.424663 0.417235 0.116593
C33   C     C_3   0.756969 0.939558 0.480545 -0.224895
C34   C     C_3   0.243031 0.939558 0.519455 -0.224894
C35   C     C_3   0.256969 0.439558 0.480545 -0.224894
C36   C     C_3   0.743031 0.439558 0.519455 -0.224897
C37   C     C_3   0.811287 0.130537 0.450194 -0.259400
C38   C     C_3   0.188713 0.130537 0.549806 -0.259400
C39   C     C_3   0.311287 0.630537 0.450194 -0.259400
C40   C     C_3   0.688713 0.630537 0.549806 -0.259399
C41   C     C_3   0.747487 0.056700 0.436601 0.064740
C42   C     C_3   0.252513 0.056700 0.563399 0.064741
C43   C     C_3   0.247487 0.556700 0.436601 0.064741
C44   C     C_3   0.752513 0.556700 0.563399 0.064742
H25   H     H_    0.855810 0.089860 0.423905 0.125400
H26   H     H_    0.144190 0.089860 0.576096 0.125400
H27   H     H_    0.355810 0.589861 0.423904 0.125400
H28   H     H_    0.644190 0.589861 0.576096 0.125400
H29   H     H_    0.804846 0.220431 0.428178 0.111367
H30   H     H_    0.195154 0.220432 0.571822 0.111364
H31   H     H_    0.304846 0.720432 0.428178 0.111364
H32   H     H_    0.695154 0.720432 0.571822 0.111364
C45   C     C_3   0.759436 0.090721 0.574219 0.060817
C46   C     C_3   0.240564 0.090721 0.425780 0.060815
C47   C     C_3   0.259435 0.590721 0.574219 0.060815
C48   C     C_3   0.740564 0.590721 0.425780 0.060810
C49   C     C_3   0.753002 0.958549 0.561757 -0.257607
C50   C     C_3   0.246998 0.958549 0.438243 -0.257606
C51   C     C_3   0.253002 0.458549 0.561757 -0.257607
C52   C     C_3   0.746998 0.458549 0.438243 -0.257602
C53   C     C_3   0.822887 0.133820 0.531518 -0.221447
C54   C     C_3   0.177113 0.133820 0.468482 -0.221447
C55   C     C_3   0.322887 0.633820 0.531518 -0.221447
C56   C     C_3   0.677113 0.633820 0.468482 -0.221450
H33   H     H_    0.841512 0.219702 0.549743 0.111089
H34   H     H_    0.158488 0.219702 0.450257 0.111088
H35   H     H_    0.341512 0.719702 0.549743 0.111088
H36   H     H_    0.658488 0.719701 0.450257 0.111086
H37   H     H_    0.863485 0.068288 0.543084 0.129383
H38   H     H_    0.136515 0.068288 0.456916 0.129382
H39   H     H_    0.363485 0.568288 0.543084 0.129383
H40   H     H_    0.636515 0.568288 0.456916 0.129381
H41   H     H_    0.809856 0.909602 0.471085 0.124808
H42   H     H_    0.190144 0.909603 0.528915 0.124808
H43   H     H_    0.309856 0.409603 0.471085 0.124808
H44   H     H_    0.690144 0.409603 0.528915 0.124808
H45   H     H_    0.795063 0.910593 0.589943 0.127481
H46   H     H_    0.204937 0.910593 0.410056 0.127481
H47   H     H_    0.295063 0.410593 0.589943 0.127480
H48   H     H_    0.704937 0.410593 0.410056 0.127489
C57   C     C_3   0.003870 0.205941 0.459022 -0.232701
C58   C     C_3   0.996130 0.205941 0.540978 -0.232700
C59   C     C_3   0.503870 0.705941 0.459022 -0.232700
C60   C     C_3   0.496130 0.705941 0.540978 -0.232701
H49   H     H_    0.046222 0.151395 0.443069 0.129079
H50   H     H_    0.953779 0.151395 0.556931 0.129079
H51   H     H_    0.546222 0.651396 0.443069 0.129079
H52   H     H_    0.453778 0.651395 0.556931 0.129079
H53   H     H_    0.959109 0.162794 0.433364 0.110868
H54   H     H_    0.040891 0.162794 0.566635 0.110869
H55   H     H_    0.459109 0.662794 0.433364 0.110869
H56   H     H_    0.540891 0.662794 0.566635 0.110869
H57   H     H_    0.617127 0.890820 0.458826 0.109098
H58   H     H_    0.382873 0.890820 0.541174 0.109099
H59   H     H_    0.117127 0.390820 0.458826 0.109099
H60   H     H_    0.882873 0.390820 0.541174 0.109099
H61   H     H_    0.600153 0.835555 0.579408 0.112570
H62   H     H_    0.399847 0.835554 0.420592 0.112570
H63   H     H_    0.100153 0.335555 0.579408 0.112570
H64   H     H_    0.899847 0.335555 0.420592 0.112572
C61   C     C_3   0.064976 0.406073 0.475874 -0.221420
C62   C     C_3   0.935024 0.406073 0.524126 -0.221420
C63   C     C_3   0.564976 0.906073 0.475874 -0.221420
C64   C     C_3   0.435023 0.906073 0.524126 -0.221420
C65   C     C_3   0.941664 0.390698 0.443032 -0.255907
C66   C     C_3   0.058336 0.390698 0.556968 -0.255908
C67   C     C_3   0.441664 0.890698 0.443032 -0.255908
C68   C     C_3   0.558336 0.890698 0.556968 -0.255908
C69   C     C_3   0.010881 0.333577 0.430979 0.061081
C70   C     C_3   0.989119 0.333577 0.569021 0.061082
C71   C     C_3   0.510881 0.833577 0.430979 0.061081
C72   C     C_3   0.489119 0.833577 0.569021 0.061081
H65   H     H_    0.938544 0.477555 0.415917 0.132599
H66   H     H_    0.061456 0.477555 0.584083 0.132603
H67   H     H_    0.438543 0.977555 0.415917 0.132602
H68   H     H_    0.561456 0.977555 0.584083 0.132602
H69   H     H_    0.947064 0.499714 0.534680 0.129501
H70   H     H_    0.052935 0.499714 0.465320 0.129501
H71   H     H_    0.447064 0.999714 0.534680 0.129501
H72   H     H_    0.552935 0.999714 0.465320 0.129501
C73   C     C_3   0.811341 0.994480 0.041647 -0.252097
C74   C     C_3   0.188666 0.994438 0.958354 -0.252074
C75   C     C_3   0.311333 0.494436 0.041645 -0.252074
C76   C     C_3   0.688657 0.494477 0.958344 -0.252075
H73   H     H_    0.828344 0.906513 0.059350 0.130425
H74   H     H_    0.171664 0.906466 0.940660 0.130408
H75   H     H_    0.328335 0.406465 0.059339 0.130408
H76   H     H_    0.671650 0.406503 0.940657 0.130408
H77   H     H_    0.851491 0.052433 0.065795 0.139077
H78   H     H_    0.148516 0.052381 0.934197 0.139113
H79   H     H_    0.351484 0.552379 0.065801 0.139111
H80   H     H_    0.648517 0.552431 0.934178 0.139121
C77   C     C_3   0.814004 0.004319 0.960970 -0.237715
C78   C     C_3   0.185995 0.004308 0.039030 -0.237705
C79   C     C_3   0.314002 0.504305 0.960969 -0.237710
C80   C     C_3   0.685975 0.504354 0.039017 -0.237673
H81   H     H_    0.867629 0.026060 0.948071 0.124420
H82   H     H_    0.132370 0.026057 0.051923 0.124403
H83   H     H_    0.367628 0.526050 0.948075 0.124408
H84   H     H_    0.632353 0.526133 0.051903 0.124366
H85   H     H_    0.803095 0.917687 0.936299 0.178795
H86   H     H_    0.196902 0.917685 0.063714 0.178807
H87   H     H_    0.303093 0.417683 0.936284 0.178805
H88   H     H_    0.696857 0.417722 0.063698 0.178820
H89   H     H_    0.689436 0.903907 0.000839 0.128971
H90   H     H_    0.310578 0.903884 0.999178 0.128986
H91   H     H_    0.189420 0.403884 0.000820 0.128994
H92   H     H_    0.810560 0.403876 0.999179 0.128931
C81   C     C_3   0.682542 0.994801 0.012618 -0.270238
C82   C     C_3   0.317463 0.994777 0.987389 -0.270243
C83   C     C_3   0.182535 0.494778 0.012611 -0.270244
C84   C     C_3   0.817452 0.494766 0.987395 -0.270262
C85   C     C_3   0.739055 0.170560 0.062603 -0.234902
C86   C     C_3   0.260951 0.170516 0.937389 -0.234875
C87   C     C_3   0.239051 0.670515 0.062612 -0.234869
C88   C     C_3   0.760972 0.670522 0.937388 -0.234877
C89   C     C_3   0.739219 0.036555 0.067345 0.020030
C90   C     C_3   0.260789 0.036510 0.932654 0.020022
C91   C     C_3   0.239211 0.536508 0.067345 0.020022
C92   C     C_3   0.760788 0.536517 0.932654 0.020032
H93   H     H_    0.686772 0.206428 0.070189 0.133362
H94   H     H_    0.313234 0.206386 0.929808 0.133330
H95   H     H_    0.186768 0.706387 0.070194 0.133334
H96   H     H_    0.813262 0.706368 0.929811 0.133326
H97   H     H_    0.773229 0.206695 0.105098 0.201189
H98   H     H_    0.226786 0.206632 0.894882 0.201262
H99   H     H_    0.273217 0.706631 0.105119 0.201256
H100  H     H_    0.726817 0.706653 0.894877 0.201273
C93   C     C_3   0.761217 0.100402 0.934327 0.066463
C94   C     C_3   0.238779 0.100399 0.065667 0.066433
C95   C     C_3   0.261220 0.600399 0.934333 0.066430
C96   C     C_3   0.738773 0.600416 0.065662 0.066440
C97   C     C_3   0.687629 0.056834 0.938999 0.096044
C98   C     C_3   0.312369 0.056829 0.061001 0.096056
C99   C     C_3   0.187629 0.556834 0.939000 0.096059
C100  C     C_3   0.812354 0.556798 0.061013 0.096052
C101  C     C_3   0.765463 0.203094 0.988051 -0.317012
C102  C     C_3   0.234529 0.203074 0.011931 -0.316997
C103  C     C_3   0.265471 0.703073 0.988070 -0.316998
C104  C     C_3   0.734550 0.703095 0.011926 -0.317008
H101  H     H_    0.818607 0.220672 0.997873 0.121073
H102  H     H_    0.181386 0.220655 0.002100 0.121102
H103  H     H_    0.318615 0.720653 0.997900 0.121100
H104  H     H_    0.681409 0.720702 0.002089 0.121099
H105  H     H_    0.738221 0.277913 0.966207 0.108062
H106  H     H_    0.261765 0.277903 0.033765 0.108043
H107  H     H_    0.238235 0.777902 0.966236 0.108042
H108  H     H_    0.761801 0.777911 0.033761 0.108042
H109  H     H_    0.632906 0.011054 0.035702 0.096421
H110  H     H_    0.367099 0.011038 0.964307 0.096415
H111  H     H_    0.132900 0.511037 0.035693 0.096415
H112  H     H_    0.867093 0.511024 0.964323 0.096407
H113  H     H_    0.652372 0.134150 0.939628 0.113701
H114  H     H_    0.347624 0.134146 0.060369 0.113696
H115  H     H_    0.152376 0.634153 0.939636 0.113692
H116  H     H_    0.847626 0.634093 0.060398 0.113715
C105  C     C_3   0.998113 0.476568 0.040224 -0.241608
C106  C     C_3   0.001886 0.476567 0.959774 -0.241636
C107  C     C_3   0.498114 0.976565 0.040225 -0.241623
C108  C     C_3   0.501888 0.976565 0.959775 -0.241621
H117  H     H_    0.033256 0.544442 0.061788 0.136489
H118  H     H_    0.966738 0.544436 0.938212 0.136497
H119  H     H_    0.533256 0.044441 0.061788 0.136497
H120  H     H_    0.466746 0.044440 0.938212 0.136497
H121  H     H_    0.947877 0.510141 0.055625 0.166486
H122  H     H_    0.052121 0.510140 0.944366 0.166474
H123  H     H_    0.447878 0.010134 0.055630 0.166472
H124  H     H_    0.552125 0.010134 0.944371 0.166480
H125  H     H_    0.612391 0.819467 0.052136 0.093647
H126  H     H_    0.387614 0.819466 0.947863 0.093655
H127  H     H_    0.112385 0.319463 0.052138 0.093650
H128  H     H_    0.887613 0.319491 0.947861 0.093667
H129  H     H_    0.602140 0.820719 0.923506 0.183932
H130  H     H_    0.397864 0.820718 0.076496 0.183914
H131  H     H_    0.102136 0.320718 0.923506 0.183922
H132  H     H_    0.897855 0.320724 0.076498 0.183824
C109  C     C_3   0.065179 0.281261 0.031423 -0.234435
C110  C     C_3   0.934814 0.281272 0.968577 -0.234423
C111  C     C_3   0.565186 0.781264 0.031422 -0.234425
C112  C     C_3   0.434819 0.781262 0.968577 -0.234427
C113  C     C_3   0.942691 0.281319 0.051508 -0.261076
C114  C     C_3   0.057301 0.281311 0.948493 -0.261107
C115  C     C_3   0.442698 0.781311 0.051508 -0.261104
C116  C     C_3   0.557305 0.781312 0.948492 -0.261095
C117  C     C_3   0.007866 0.349100 0.070117 0.070279
C118  C     C_3   0.992131 0.349099 0.929883 0.070233
C119  C     C_3   0.507870 0.849097 0.070116 0.070245
C120  C     C_3   0.492133 0.849097 0.929883 0.070245
H133  H     H_    0.946337 0.189451 0.071857 0.112204
H134  H     H_    0.053653 0.189444 0.928143 0.112223
H135  H     H_    0.446345 0.689444 0.071858 0.112220
H136  H     H_    0.553658 0.689445 0.928141 0.112214
H137  H     H_    0.934203 0.187871 0.951029 0.135037
H138  H     H_    0.065783 0.187860 0.048970 0.135033
H139  H     H_    0.434213 0.687861 0.951030 0.135036
H140  H     H_    0.565789 0.687864 0.048969 0.135024
N1    N     N_R   0.667488 0.984432 0.876748 0.039223
O53   O     O_R   0.706651 0.900353 0.854476 -0.393095
O54   O     O_R   0.618596 0.021044 0.834089 -0.347046
N2    N     N_R   0.332507 0.984440 0.123259 0.039248
O55   O     O_R   0.293348 0.900351 0.145531 -0.393081
O56   O     O_R   0.381400 0.021060 0.165917 -0.347037
N3    N     N_R   0.167487 0.484453 0.876740 0.039254
O57   O     O_R   0.206631 0.400339 0.854479 -0.393108
O58   O     O_R   0.118607 0.521094 0.834075 -0.347018
N4    N     N_R   0.832464 0.484367 0.123265 0.039205
O59   O     O_R   0.793200 0.400464 0.145612 -0.392863
O60   O     O_R   0.881435 0.520850 0.165874 -0.347164

loop_
_geom_bond_atom_site_label_1
_geom_bond_atom_site_label_2
_geom_bond_distance
_ccdc_geom_bond_type
O4    C12   1.296905 A    
O25   C21   1.301975 A    
C46   C50   1.524338 S    
C96   C100  1.527163 S    
C59   H55   1.105092 S    
Cr7   O51   2.048877 S    
C103  H107  1.079251 S    
C58   H54   1.105093 S    
C93   C97   1.527132 S    
C87   C103  1.540287 S    
O39   C19   1.311701 A    
C58   H50   1.081520 S    
C67   H67   1.110357 S    
C109  C114  1.554226 S    
C77   H81   1.109359 S    
C25   C41   1.552146 S    
H89   C81   1.064950 S    
C2    C43   1.473383 S    
O44   Cr12  2.133178 S    
C3    O11   1.291487 A    
C61   C66   1.533357 S    
C56   H36   1.093592 S    
C55   H35   1.093594 S    
C68   H68   1.110357 S    
C54   H38   1.107098 S    
C112  C115  1.554234 S    
C45   C49   1.524338 S    
O2    C10   1.296905 A    
C47   C55   1.567672 S    
C36   H44   1.107155 S    
C7    C47   1.471026 S    
H58   C64   1.089117 S    
H59   C61   1.089117 S    
O31   Cr3   1.999848 S    
H19   C35   1.090418 S    
O16   Cr8   1.986016 S    
C110  C118  1.551406 S    
C64   C67   1.533357 S    
C93   C101  1.540266 S    
C113  C117  1.524398 S    
C34   C50   1.536200 S    
C99   N3    1.472068 S    
C76   H80   1.113891 S    
C73   H73   1.102078 S    
O28   Cr4   2.096666 S    
O12   Cr8   2.124264 S    
O22   Cr10  2.010672 S    
C81   H109  1.086469 S    
O46   Cr10  1.969697 S    
C35   H43   1.107156 S    
C61   H70   1.106494 S    
O14   Cr6   1.986016 S    
C75   C79   1.513552 S    
C81   C89   1.567453 S    
C51   H47   1.111297 S    
H24   C52   1.106702 S    
C85   C89   1.524955 S    
C114  C118  1.524380 S    
C61   C69   1.571091 S    
C25   C29   1.528202 S    
Cr12  O52   2.059605 S    
C27   C31   1.528200 S    
C100  H116  1.117211 S    
C31   C47   1.549750 S    
C6    C46   1.471025 S    
C24   C119  1.492971 S    
C17   O41   1.282362 A    
C19   O43   1.282377 A    
C20   O44   1.282394 A    
C73   H77   1.113893 S    
C20   C96   1.484984 S    
Cr8   O52   2.048873 S    
C79   C95   1.576918 S    
O46   C22   1.309445 A    
C106  C118  1.562449 S    
C17   C93   1.484962 S    
C107  H123  1.098277 S    
C64   C72   1.571091 S    
C39   C43   1.521554 S    
C28   C32   1.528200 S    
C37   C41   1.521555 S    
C16   O36   1.312870 A    
C27   C43   1.552147 S    
C38   H26   1.109530 S    
C88   H100  1.107041 S    
C95   C99   1.527160 S    
O27   C23   1.301978 A    
C31   H11   1.089163 S    
C22   C117  1.492984 S    
H23   C51   1.106702 S    
O32   C16   1.340159 A    
O47   Cr11  1.969692 S    
C74   C78   1.513550 S    
O21   C9    1.308134 A    
C12   C71   1.484274 S    
C76   C92   1.574282 S    
C87   H99   1.107051 S    
C18   C94   1.485019 S    
O24   C12   1.308131 A    
C31   H15   1.106879 S    
C28   C44   1.552147 S    
C8    C48   1.471026 S    
O30   C14   1.340131 A    
C79   H83   1.109362 S    
C105  H117  1.104183 S    
C28   H4    1.085623 S    
C36   C44   1.572818 S    
C111  C116  1.554230 S    
C107  C119  1.562453 S    
O32   Cr4   1.999847 S    
C26   C30   1.528201 S    
C53   H33   1.093592 S    
C39   C55   1.532485 S    
C63   C68   1.533357 S    
C40   C56   1.532485 S    
O11   Cr7   2.124269 S    
C104  H104  1.071541 S    
H130  C115  1.097523 S    
O27   Cr3   2.096668 S    
C96   C104  1.540288 S    
O3    Cr3   2.123706 S    
C108  H124  1.098277 S    
Cr5   O49   2.048877 S    
C100  N4    1.472128 S    
C83   C99   1.550551 S    
C94   C98   1.527163 S    
C84   C100  1.550534 S    
C13   C92   1.506853 S    
C57   H53   1.105091 S    
O7    C3    1.295130 A    
C67   C71   1.522911 S    
C87   H95   1.113130 S    
O22   C10   1.308131 A    
C81   C97   1.550555 S    
C4    O12   1.291487 A    
C2    O10   1.291488 A    
C32   H16   1.106879 S    
N4    O59   1.298504 A    
H127  C109  1.085289 S    
C83   H111  1.086458 S    
C55   H39   1.107098 S    
O5    C1    1.295131 A    
O3    C11   1.296904 A    
O8    C4    1.295129 A    
C104  H108  1.079281 S    
C84   H112  1.086475 S    
Cr1   O49   2.059677 S    
C97   H113  1.117213 S    
C101  H105  1.079289 S    
H64   C65   1.106674 S    
H21   C49   1.106701 S    
H60   C62   1.089117 S    
C111  C119  1.551421 S    
C74   C90   1.574284 S    
C94   C102  1.540273 S    
C57   C69   1.548807 S    
O26   Cr2   2.096666 S    
Cr3   O51   2.059677 S    
C5    O17   1.294860 A    
O29   C13   1.340121 A    
O28   C24   1.301974 A    
O14   C6    1.298860 A    
C8    O20   1.294858 A    
C105  C117  1.562467 S    
N2    O55   1.298359 A    
C82   H110  1.086467 S    
C75   H79   1.113894 S    
C45   C53   1.567672 S    
O40   Cr8   2.004843 S    
C40   H32   1.107275 S    
C48   C56   1.567674 S    
O41   Cr9   2.133181 S    
C38   C54   1.532485 S    
C66   C70   1.522910 S    
O31   C15   1.340123 A    
C9    C70   1.484274 S    
C64   H71   1.106493 S    
O33   Cr5   2.107585 S    
C60   C72   1.548807 S    
C33   C49   1.536199 S    
C111  H140  1.110582 S    
C86   C102  1.540283 S    
O5    Cr1   1.979970 S    
O35   Cr7   2.107585 S    
O29   Cr1   1.999848 S    
C85   H97   1.107091 S    
C78   H86   1.105840 S    
C57   H49   1.081519 S    
C30   C46   1.549749 S    
C27   H7    1.107548 S    
H125  C111  1.085291 S    
Cr9   O49   2.059607 S    
C60   H52   1.081520 S    
C18   O42   1.282375 A    
Cr11  O51   2.059607 S    
O26   C22   1.301974 A    
O20   Cr12  2.091612 S    
C73   C77   1.513535 S    
C49   H45   1.111295 S    
C36   C52   1.536201 S    
C86   C90   1.524964 S    
C108  H120  1.104184 S    
C39   H27   1.109533 S    
C115  C119  1.524390 S    
C40   H28   1.109531 S    
C76   C80   1.513504 S    
C1    O9    1.291486 A    
C38   C42   1.521556 S    
C29   H13   1.106880 S    
C66   H66   1.110356 S    
C80   H84   1.109347 S    
C109  C117  1.551421 S    
C83   C91   1.567442 S    
H90   C82   1.064956 S    
C101  H101  1.071487 S    
C62   C65   1.533357 S    
C103  H103  1.071510 S    
H129  C116  1.097515 S    
C115  H135  1.112598 S    
C116  H136  1.112596 S    
C26   H2    1.085623 S    
C68   C72   1.522911 S    
C23   C120  1.492980 S    
C60   H56   1.105092 S    
O42   Cr10  2.133178 S    
O18   Cr10  2.091612 S    
C19   C95   1.485022 S    
O34   Cr6   2.107588 S    
C79   H87   1.105839 S    
O6    Cr2   1.979969 S    
C47   C51   1.524337 S    
H132  C113  1.097560 S    
O24   Cr12  2.010672 S    
O30   Cr2   1.999847 S    
C110  C113  1.554247 S    
C109  H138  1.110593 S    
C106  H118  1.104191 S    
O1    C9    1.296904 A    
O48   Cr12  1.969697 S    
C4    C41   1.473384 S    
O37   C17   1.311669 A    
C15   O35   1.312853 A    
C37   H29   1.107275 S    
Cr10  O50   2.059605 S    
C88   C92   1.524948 S    
O43   Cr11  2.133181 S    
C86   H94   1.113130 S    
O37   Cr5   2.004847 S    
N3    O57   1.298334 A    
O21   Cr9   2.010671 S    
C105  C106  1.506499 S    
O39   Cr7   2.004847 S    
C62   H69   1.106494 S    
O45   Cr9   1.969692 S    
C107  C108  1.506496 S    
C13   O33   1.312859 A    
C82   C90   1.567438 S    
O13   Cr5   1.986014 S    
C85   H93   1.113127 S    
O15   Cr7   1.986014 S    
C87   C91   1.524971 S    
H63   C66   1.106674 S    
C52   H48   1.111296 S    
O23   C11   1.308134 A    
C82   C98   1.550549 S    
H61   C68   1.106673 S    
C3    C42   1.473385 S    
C73   C89   1.574263 S    
C32   H12   1.089163 S    
C62   C70   1.571092 S    
C1    C44   1.473385 S    
H128  C110  1.085292 S    
H20   C36   1.090417 S    
C35   C43   1.572818 S    
H91   C83   1.064961 S    
C33   C41   1.572818 S    
C34   H42   1.107156 S    
O6    C2    1.295129 A    
O1    Cr1   2.123706 S    
C46   C54   1.567674 S    
O19   Cr11  2.091608 S    
C5    C45   1.471026 S    
H57   C63   1.089116 S    
C98   H114  1.117212 S    
C65   H65   1.110357 S    
C102  H106  1.079245 S    
O45   C21   1.309439 A    
O47   C23   1.309438 A    
N1    O53   1.298328 A    
O13   C5    1.298858 A    
C95   C103  1.540274 S    
C26   C42   1.552146 S    
O40   C20   1.311722 A    
C6    O18   1.294858 A    
C77   H85   1.105846 S    
C84   C92   1.567438 S    
O36   Cr8   2.107588 S    
C53   H37   1.107097 S    
C15   C90   1.506849 S    
H126  C112  1.085289 S    
O38   Cr6   2.004843 S    
C75   H75   1.102077 S    
C59   C60   1.541798 S    
C56   H40   1.107098 S    
C57   C58   1.541800 S    
O15   C7    1.298858 A    
O8    Cr4   1.979969 S    
C48   C52   1.524338 S    
O23   Cr11  2.010671 S    
C98   N2    1.472078 S    
C106  H122  1.098280 S    
C16   C89   1.506730 S    
C63   C71   1.571091 S    
C14   C91   1.506848 S    
C80   H88   1.105827 S    
N4    O60   1.301727 A    
C78   H82   1.109364 S    
C75   C91   1.574284 S    
C99   H115  1.117211 S    
N1    O54   1.301636 A    
C59   C71   1.548808 S    
C112  C120  1.551414 S    
C113  H133  1.112595 S    
O16   C8    1.298860 A    
C97   N1    1.472076 S    
C32   C48   1.549750 S    
C7    O19   1.294860 A    
Cr4   O52   2.059679 S    
O2    Cr2   2.123707 S    
O48   C24   1.309436 A    
C80   C96   1.576919 S    
Cr6   O50   2.048873 S    
C50   H46   1.111294 S    
C33   H41   1.107155 S    
C25   H1    1.085623 S    
C39   H31   1.107276 S    
C77   C93   1.576936 S    
C40   C44   1.521554 S    
C11   C72   1.484274 S    
C29   H9    1.089164 S    
O9    Cr5   2.124269 S    
C76   H76   1.102085 S    
H62   C67   1.106674 S    
H22   C50   1.106703 S    
N2    O56   1.301663 A    
C102  H102  1.071515 S    
O7    Cr3   1.979970 S    
C114  H134  1.112597 S    
C74   H74   1.102079 S    
C59   H51   1.081520 S    
C116  C120  1.524392 S    
C25   H5    1.107548 S    
C88   C104  1.540263 S    
H17   C33   1.090418 S    
Cr2   O50   2.059679 S    
N3    O58   1.301647 A    
C78   C94   1.576919 S    
C112  H139  1.110597 S    
C37   C53   1.532485 S    
H131  C114  1.097519 S    
C35   C51   1.536201 S    
C86   H98   1.107047 S    
C107  H119  1.104180 S    
C108  C120  1.562457 S    
C58   C70   1.548807 S    
C28   H8    1.107550 S    
O38   C18   1.311701 A    
C37   H25   1.109530 S    
O25   Cr1   2.096668 S    
C38   H30   1.107275 S    
C88   H96   1.113135 S    
C29   C45   1.549748 S    
C21   C118  1.492974 S    
O17   Cr9   2.091608 S    
C14   O34   1.312860 A    
C74   H78   1.113895 S    
C10   C69   1.484274 S    
C65   C69   1.522910 S    
C34   C42   1.572818 S    
C30   H10   1.089162 S    
C85   C101  1.540304 S    
C63   H72   1.106494 S    
O10   Cr6   2.124264 S    
C110  H137  1.110597 S    
O4    Cr4   2.123707 S    
C30   H14   1.106879 S    
H18   C34   1.090418 S    
C27   H3    1.085622 S    
C54   H34   1.093592 S    
C105  H121  1.098270 S    
H92   C84   1.064905 S    
C26   H6    1.107549 S    
