data_str_m2_o40_o41_f0_fof.sym.57
_audit_creation_date              2012-10-26T17:12:49-0400
_audit_creation_method            fapswitch 2.2
_symmetry_space_group_name_H-M    P1
_symmetry_Int_Tables_number       1
_space_group_crystal_system       triclinic
_cell_length_a                    27.909516
_cell_length_b                    18.757636
_cell_length_c                    16.755414
_cell_angle_alpha                 89.295917
_cell_angle_beta                  63.049341
_cell_angle_gamma                 89.93811
_cell_volume                      7818.4113254

loop_
_atom_site_label
_atom_site_type_symbol
_atom_type_description
_atom_site_fract_x
_atom_site_fract_y
_atom_site_fract_z
_atom_type_partial_charge
C1    C     C_R   0.295053 0.729116 0.329047 0.841149
C2    C     C_R   0.703774 0.268344 0.671989 0.815242
C3    C     C_R   0.702718 0.733323 0.672057 0.813764
C4    C     C_R   0.297370 0.266413 0.328162 0.833741
C5    C     C_R   0.795053 0.229117 0.329046 0.841198
C6    C     C_R   0.203772 0.768340 0.671990 0.815307
C7    C     C_R   0.202720 0.233320 0.672058 0.813750
C8    C     C_R   0.797368 0.766416 0.328162 0.833710
C9    C     C_R   0.389597 0.999344 0.531643 0.073476
C10   C     C_R   0.589624 0.000875 0.537934 0.074228
C11   C     C_R   0.889521 0.499350 0.531844 0.073526
C12   C     C_R   0.089554 0.500854 0.538120 0.074203
C13   C     C_R   0.601124 0.879205 0.487546 -0.225243
C14   C     C_R   0.378665 0.124044 0.566342 -0.232752
C15   C     C_R   0.387791 0.871647 0.543404 -0.225337
C16   C     C_R   0.576912 0.124330 0.582782 -0.235721
C17   C     C_R   0.100955 0.379116 0.487970 -0.225198
C18   C     C_R   0.878638 0.624076 0.566405 -0.232742
C19   C     C_R   0.887634 0.371659 0.543780 -0.225506
C20   C     C_R   0.076897 0.624347 0.582814 -0.235795
C21   C     C_R   0.229650 0.782700 0.946659 0.032172
C22   C     C_R   0.793726 0.257754 0.035149 0.033325
C23   C     C_R   0.782318 0.761998 0.044352 0.030878
C24   C     C_R   0.217924 0.238098 0.956112 0.033062
C25   C     C_R   0.729668 0.282730 0.946645 0.032182
C26   C     C_R   0.293711 0.757729 0.035160 0.033331
C27   C     C_R   0.282339 0.261966 0.044339 0.030874
C28   C     C_R   0.717902 0.738133 0.956126 0.033063
C29   C     C_R   0.278465 0.744557 0.903633 0.046985
C30   C     C_R   0.747331 0.300115 0.075931 0.041917
C31   C     C_R   0.734625 0.721044 0.086697 0.044277
C32   C     C_R   0.265700 0.278940 0.913670 0.043601
C33   C     C_R   0.778486 0.244592 0.903617 0.047028
C34   C     C_R   0.247315 0.800089 0.075942 0.041918
C35   C     C_R   0.234649 0.221005 0.086680 0.044273
C36   C     C_R   0.765679 0.778972 0.913682 0.043608
C37   C     C_R   0.311933 0.735485 0.946216 0.042241
C38   C     C_R   0.713687 0.309357 0.033713 0.042484
C39   C     C_R   0.701070 0.712181 0.044364 0.043193
C40   C     C_R   0.299138 0.288029 0.956179 0.045291
C41   C     C_R   0.811952 0.235516 0.946202 0.042256
C42   C     C_R   0.213670 0.809330 0.033725 0.042491
C43   C     C_R   0.201095 0.212142 0.044348 0.043187
C44   C     C_R   0.799118 0.788059 0.956191 0.045285
C45   C     C_R   0.146212 0.827908 0.947937 0.027919
C46   C     C_R   0.866306 0.190795 0.045579 0.020781
C47   C     C_R   0.861634 0.816559 0.047693 0.029590
C48   C     C_R   0.138294 0.183996 0.953193 0.038064
C49   C     C_R   0.646224 0.327926 0.947930 0.027917
C50   C     C_R   0.366298 0.690783 0.045583 0.020776
C51   C     C_R   0.361647 0.316542 0.047687 0.029591
C52   C     C_R   0.638277 0.684021 0.953200 0.038071
C53   C     C_R   0.115202 0.844375 0.901246 -0.174599
C54   C     C_R   0.883114 0.151223 0.101989 -0.160843
C55   C     C_R   0.889153 0.838979 0.097471 -0.177072
C56   C     C_R   0.110149 0.162793 0.903947 -0.182922
C57   C     C_R   0.615209 0.344383 0.901244 -0.174596
C58   C     C_R   0.383111 0.651219 0.101991 -0.160852
C59   C     C_R   0.389160 0.338972 0.097470 -0.177074
C60   C     C_R   0.610138 0.662806 0.903948 -0.182948
C61   C     C_R   0.129681 0.813469 0.816406 0.066821
C62   C     C_R   0.852787 0.156609 0.196172 0.055410
C63   C     C_R   0.873776 0.809633 0.184059 0.059064
C64   C     C_R   0.124610 0.194928 0.818956 0.082034
C65   C     C_R   0.629686 0.313472 0.816408 0.066820
C66   C     C_R   0.352787 0.656608 0.196174 0.055410
C67   C     C_R   0.373781 0.309631 0.184061 0.059070
C68   C     C_R   0.624602 0.694934 0.818950 0.081989
C69   C     C_R   0.180149 0.779063 0.771060 -0.167833
C70   C     C_R   0.818408 0.215968 0.231588 -0.167672
C71   C     C_R   0.823960 0.773046 0.228377 -0.178141
C72   C     C_R   0.175903 0.227812 0.772422 -0.131499
C73   C     C_R   0.680156 0.279072 0.771058 -0.167812
C74   C     C_R   0.318406 0.715964 0.231590 -0.167674
C75   C     C_R   0.323968 0.273038 0.228376 -0.178153
C76   C     C_R   0.675894 0.727823 0.772422 -0.131522
C77   C     C_R   0.210731 0.762968 0.818470 0.027307
C78   C     C_R   0.801912 0.255395 0.174789 0.019113
C79   C     C_R   0.796966 0.750359 0.178056 0.025688
C80   C     C_R   0.203370 0.249672 0.822270 0.018772
C81   C     C_R   0.710745 0.262988 0.818460 0.027320
C82   C     C_R   0.301905 0.755385 0.174792 0.019114
C83   C     C_R   0.296981 0.250339 0.178049 0.025692
C84   C     C_R   0.703355 0.749694 0.822276 0.018770
C85   C     C_R   0.196518 0.631789 0.528226 0.801759
C86   C     C_R   0.799486 0.368821 0.486501 0.827735
C87   C     C_R   0.798733 0.631169 0.488951 0.818459
C88   C     C_R   0.199417 0.369217 0.517081 0.810444
C89   C     C_R   0.696519 0.131792 0.528233 0.801834
C90   C     C_R   0.299500 0.868821 0.486460 0.827737
C91   C     C_R   0.298737 0.131167 0.488941 0.818414
C92   C     C_R   0.699430 0.869220 0.517051 0.810438
C93   C     C_R   0.195791 0.792146 0.903663 0.072285
C94   C     C_R   0.820747 0.234702 0.085191 0.078199
C95   C     C_R   0.813588 0.776680 0.090338 0.072301
C96   C     C_R   0.186533 0.223636 0.910280 0.068492
C97   C     C_R   0.695806 0.292170 0.903652 0.072289
C98   C     C_R   0.320736 0.734686 0.085197 0.078195
C99   C     C_R   0.313604 0.276656 0.090329 0.072305
C100  C     C_R   0.686514 0.723665 0.910289 0.068508
C101  C     C_R   0.127892 0.841475 0.040000 -0.164313
C102  C     C_R   0.891357 0.186741 0.951172 -0.170504
C103  C     C_R   0.882182 0.828316 0.954570 -0.166218
C104  C     C_R   0.117958 0.171775 0.046211 -0.159455
C105  C     C_R   0.627906 0.341496 0.039991 -0.164311
C106  C     C_R   0.391344 0.686724 0.951177 -0.170500
C107  C     C_R   0.382198 0.328298 0.954564 -0.166226
C108  C     C_R   0.617936 0.671807 0.046219 -0.159464
C109  C     C_R   0.161423 0.835828 0.080474 -0.214256
C110  C     C_R   0.863767 0.206130 0.902779 -0.211552
C111  C     C_R   0.850880 0.817612 0.910956 -0.220297
C112  C     C_R   0.149209 0.182968 0.089914 -0.218696
C113  C     C_R   0.661440 0.335854 0.080462 -0.214254
C114  C     C_R   0.363749 0.706101 0.902790 -0.211554
C115  C     C_R   0.350898 0.317589 0.910947 -0.220317
C116  C     C_R   0.649184 0.683008 0.089928 -0.218709
C117  C     C_R   0.254137 0.714541 0.786526 -0.173556
C118  C     C_R   0.765554 0.312986 0.203783 -0.171096
C119  C     C_R   0.755892 0.698129 0.209913 -0.168798
C120  C     C_R   0.244837 0.301311 0.789939 -0.171057
C121  C     C_R   0.754157 0.214571 0.786511 -0.173603
C122  C     C_R   0.265545 0.812974 0.203785 -0.171095
C123  C     C_R   0.255913 0.198102 0.209903 -0.168779
C124  C     C_R   0.744822 0.801334 0.789944 -0.171065
C125  C     C_R   0.288653 0.708451 0.825002 -0.225887
C126  C     C_R   0.737130 0.332936 0.157039 -0.212012
C127  C     C_R   0.724223 0.685742 0.167261 -0.221854
C128  C     C_R   0.276331 0.313862 0.832793 -0.233652
C129  C     C_R   0.788676 0.208489 0.824982 -0.226029
C130  C     C_R   0.237116 0.832916 0.157046 -0.212017
C131  C     C_R   0.224249 0.185703 0.167244 -0.221780
C132  C     C_R   0.776313 0.813890 0.832801 -0.233658
C133  C     C_R   0.929282 0.898642 0.064080 0.814976
C134  C     C_R   0.070547 0.101826 0.936191 0.807638
C135  C     C_R   0.072138 0.900169 0.935462 0.824400
C136  C     C_R   0.926654 0.097592 0.065784 0.822013
C137  C     C_R   0.429284 0.398640 0.064079 0.814981
C138  C     C_R   0.570543 0.601830 0.936193 0.807642
C139  C     C_R   0.572140 0.400171 0.935461 0.824403
C140  C     C_R   0.426654 0.597591 0.065785 0.822011
C141  C     C_R   0.026357 0.626574 0.582211 0.040150
C142  C     C_R   0.939758 0.369468 0.535675 0.020352
C143  C     C_R   0.925568 0.625321 0.578728 0.024396
C144  C     C_R   0.046986 0.373246 0.506623 0.023969
C145  C     C_R   0.526383 0.126554 0.582148 0.040159
C146  C     C_R   0.439950 0.869477 0.535132 0.020365
C147  C     C_R   0.425600 0.125289 0.578650 0.024398
C148  C     C_R   0.547180 0.873317 0.506058 0.023965
C149  C     C_R   0.994801 0.690037 0.602256 0.128952
C150  C     C_R   0.967576 0.304047 0.526975 0.127104
C151  C     C_R   0.942193 0.687425 0.607723 0.123116
C152  C     C_R   0.023397 0.306531 0.503445 0.126465
C153  C     C_R   0.494805 0.189999 0.602258 0.128945
C154  C     C_R   0.467841 0.804077 0.526154 0.127156
C155  C     C_R   0.442200 0.187375 0.607718 0.123095
C156  C     C_R   0.523661 0.806617 0.502622 0.126408
C157  C     C_R   0.956966 0.563188 0.559711 -0.010643
C158  C     C_R   0.016078 0.435827 0.529551 -0.011467
C159  C     C_R   0.006854 0.563474 0.562043 -0.014838
C160  C     C_R   0.964561 0.434784 0.535113 -0.011298
C161  C     C_R   0.457028 0.063177 0.559542 -0.010631
C162  C     C_R   0.516223 0.935861 0.529130 -0.011460
C163  C     C_R   0.506913 0.063469 0.561879 -0.014848
C164  C     C_R   0.464706 0.934801 0.534699 -0.011329
C165  C     C_R   0.436975 0.999218 0.542563 0.005050
C166  C     C_R   0.537727 0.000300 0.542469 0.002269
C167  C     C_R   0.936880 0.499218 0.542823 0.005059
C168  C     C_R   0.037636 0.500282 0.542727 0.002270
C169  C     C_R   0.366930 0.934419 0.523986 0.037103
C170  C     C_R   0.610756 0.064225 0.554073 0.041737
C171  C     C_R   0.620782 0.938205 0.514906 0.035957
C172  C     C_R   0.363876 0.063903 0.532223 0.037734
C173  C     C_R   0.866843 0.434427 0.524208 0.037089
C174  C     C_R   0.110725 0.564223 0.554142 0.041769
C175  C     C_R   0.120692 0.438163 0.515130 0.036017
C176  C     C_R   0.863835 0.563917 0.532328 0.037708
C177  C     C_R   0.323932 0.934923 0.499657 -0.107476
C178  C     C_R   0.665123 0.065079 0.540937 -0.112977
C179  C     C_R   0.670451 0.936553 0.519923 -0.114054
C180  C     C_R   0.322824 0.064629 0.503013 -0.107911
C181  C     C_R   0.823895 0.434928 0.499757 -0.107508
C182  C     C_R   0.165108 0.565076 0.540945 -0.112958
C183  C     C_R   0.170409 0.436536 0.520001 -0.114017
C184  C     C_R   0.822807 0.564636 0.503063 -0.107886
C185  C     C_R   0.304115 0.000078 0.486816 -0.285505
C186  C     C_R   0.692419 0.000572 0.529944 -0.283133
C187  C     C_R   0.804107 0.500083 0.486852 -0.285478
C188  C     C_R   0.192402 0.500567 0.529932 -0.283187
Cu1   Cu    Cu3+1 0.209920 0.785290 0.495070 0.899296
Cu2   Cu    Cu3+1 0.790080 0.214710 0.504930 0.885708
Cu3   Cu    Cu3+1 0.790080 0.785290 0.504930 0.889882
Cu4   Cu    Cu3+1 0.209920 0.214710 0.495070 0.897294
Cu5   Cu    Cu3+1 0.709920 0.285290 0.495070 0.899306
Cu6   Cu    Cu3+1 0.290080 0.714710 0.504930 0.885794
Cu7   Cu    Cu3+1 0.290080 0.285290 0.504930 0.889903
Cu8   Cu    Cu3+1 0.709920 0.714710 0.495070 0.897211
Cu9   Cu    Cu3+1 0.495240 0.500000 0.924150 0.897761
Cu10  Cu    Cu3+1 0.504760 0.500000 0.075850 0.890894
Cu11  Cu    Cu3+1 0.995240 0.000000 0.924150 0.897773
Cu12  Cu    Cu3+1 0.004760 1.000000 0.075850 0.890886
H1    H     H_    0.260527 0.675991 0.735669 0.175284
H2    H     H_    0.757814 0.343411 0.262452 0.172809
H3    H     H_    0.749038 0.662871 0.265394 0.172513
H4    H     H_    0.251971 0.336390 0.734194 0.176830
H5    H     H_    0.760550 0.176017 0.735657 0.175326
H6    H     H_    0.257806 0.843403 0.262450 0.172804
H7    H     H_    0.249059 0.162850 0.265390 0.172488
H8    H     H_    0.751957 0.836407 0.734193 0.176840
H9    H     H_    0.320983 0.670479 0.795753 0.135298
H10   H     H_    0.707737 0.374822 0.184839 0.136548
H11   H     H_    0.693272 0.645402 0.196421 0.135784
H12   H     H_    0.307403 0.353989 0.803297 0.142827
H13   H     H_    0.821011 0.170523 0.795728 0.135305
H14   H     H_    0.207722 0.874801 0.184846 0.136544
H15   H     H_    0.193302 0.145357 0.196400 0.135765
H16   H     H_    0.807386 0.854016 0.803304 0.142825
O1    O     O_R   0.255040 0.869590 0.478480 -0.588310
O2    O     O_R   0.744960 0.130410 0.521520 -0.593943
O3    O     O_R   0.744960 0.869590 0.521520 -0.587990
O4    O     O_R   0.255040 0.130410 0.478480 -0.588713
O5    O     O_R   0.755040 0.369590 0.478480 -0.588309
O6    O     O_R   0.244960 0.630410 0.521520 -0.593892
O7    O     O_R   0.244960 0.369590 0.521520 -0.587968
O8    O     O_R   0.755040 0.630410 0.478480 -0.588731
O9    O     O_R   0.182050 0.796550 0.624440 -0.574525
O10   O     O_R   0.817950 0.203450 0.375560 -0.569629
O11   O     O_R   0.817950 0.796550 0.375560 -0.569919
O12   O     O_R   0.182050 0.203450 0.624440 -0.579971
O13   O     O_R   0.682050 0.296550 0.624440 -0.574533
O14   O     O_R   0.317950 0.703450 0.375560 -0.569654
O15   O     O_R   0.317950 0.296550 0.375560 -0.569916
O16   O     O_R   0.682050 0.703450 0.624440 -0.579933
O17   O     O_R   0.250530 0.763330 0.367210 -0.593711
O18   O     O_R   0.749470 0.236670 0.632790 -0.607447
O19   O     O_R   0.749470 0.763330 0.632790 -0.604026
O20   O     O_R   0.250530 0.236670 0.367210 -0.598190
O21   O     O_R   0.750530 0.263330 0.367210 -0.593706
O22   O     O_R   0.249470 0.736670 0.632790 -0.607409
O23   O     O_R   0.249470 0.263330 0.632790 -0.604019
O24   O     O_R   0.750530 0.736670 0.367210 -0.598215
O25   O     O_R   0.177260 0.690030 0.513710 -0.596713
O26   O     O_R   0.822740 0.309970 0.486290 -0.606226
O27   O     O_R   0.822740 0.690030 0.486290 -0.604913
O28   O     O_R   0.177260 0.309970 0.513710 -0.603952
O29   O     O_R   0.677260 0.190030 0.513710 -0.596704
O30   O     O_R   0.322740 0.809970 0.486290 -0.606318
O31   O     O_R   0.322740 0.190030 0.486290 -0.604892
O32   O     O_R   0.677260 0.809970 0.513710 -0.603867
O33   O     O_R   0.051640 0.926880 0.885090 -0.571734
O34   O     O_R   0.948360 0.073120 0.114910 -0.577431
O35   O     O_R   0.948360 0.926880 0.114910 -0.579684
O36   O     O_R   0.051640 0.073120 0.885090 -0.592743
O37   O     O_R   0.551640 0.426880 0.885090 -0.571732
O38   O     O_R   0.448360 0.573120 0.114910 -0.577426
O39   O     O_R   0.448360 0.426880 0.114910 -0.579685
O40   O     O_R   0.551640 0.573120 0.885090 -0.592761
O41   O     O_R   0.940620 0.926560 0.986760 -0.597224
O42   O     O_R   0.059380 0.073440 0.013240 -0.586800
O43   O     O_R   0.059380 0.926560 0.013240 -0.599714
O44   O     O_R   0.940620 0.073440 0.986760 -0.598896
O45   O     O_R   0.440620 0.426560 0.986760 -0.597218
O46   O     O_R   0.559380 0.573440 0.013240 -0.586783
O47   O     O_R   0.559380 0.426560 0.013240 -0.599719
O48   O     O_R   0.440620 0.573440 0.986760 -0.598905
C189  C     C_3   0.557144 0.738343 0.478290 -0.413587
C190  C     C_3   0.564442 0.709203 0.557645 -0.805351
H17   H     H_    0.524940 0.694656 0.614004 0.226209
H18   H     H_    0.590035 0.660906 0.537231 0.229168
H19   H     H_    0.583960 0.749285 0.581420 0.283546
H20   H     H_    0.539370 0.695982 0.454612 0.201825
H21   H     H_    0.596643 0.746749 0.419276 0.188348
C191  C     C_3   0.402808 0.248525 0.648930 -0.403987
C192  C     C_3   0.405799 0.303490 0.578669 -0.824588
H22   H     H_    0.446052 0.329073 0.545887 0.245034
H23   H     H_    0.397729 0.278249 0.526403 0.257289
H24   H     H_    0.375256 0.345459 0.611460 0.227146
H25   H     H_    0.361044 0.228302 0.686807 0.205347
H26   H     H_    0.409015 0.274580 0.702333 0.178091
C193  C     C_3   0.438769 0.732536 0.539287 -0.418176
C194  C     C_3   0.435692 0.709737 0.454383 -0.808209
H27   H     H_    0.416005 0.751132 0.431868 0.278285
H28   H     H_    0.476506 0.700480 0.399252 0.228100
H29   H     H_    0.412132 0.659501 0.467809 0.225640
H30   H     H_    0.457968 0.689719 0.560623 0.200348
H31   H     H_    0.398006 0.734139 0.596662 0.186074
C195  C     C_3   0.519139 0.261091 0.609985 -0.423338
C196  C     C_3   0.562410 0.286789 0.518569 -0.807848
H32   H     H_    0.596591 0.249294 0.490223 0.274684
H33   H     H_    0.545025 0.292420 0.470897 0.244032
H34   H     H_    0.578019 0.339638 0.525158 0.216328
H35   H     H_    0.490002 0.304970 0.635509 0.208294
H36   H     H_    0.535116 0.256547 0.659393 0.184590
C197  C     C_3   0.056795 0.238188 0.479424 -0.413377
C198  C     C_3   0.064084 0.209299 0.558890 -0.805918
H37   H     H_    0.024552 0.195240 0.615499 0.226475
H38   H     H_    0.089404 0.160746 0.538824 0.229108
H39   H     H_    0.083908 0.249346 0.582142 0.283726
H40   H     H_    0.038944 0.195749 0.456000 0.201838
H41   H     H_    0.096296 0.246407 0.420356 0.188286
C199  C     C_3   0.902823 0.748608 0.648870 -0.404008
C200  C     C_3   0.905843 0.803536 0.578555 -0.824611
H42   H     H_    0.946122 0.829040 0.545693 0.245071
H43   H     H_    0.897716 0.778282 0.526356 0.257286
H44   H     H_    0.875350 0.845569 0.611314 0.227131
H45   H     H_    0.861051 0.728418 0.686758 0.205349
H46   H     H_    0.909036 0.774689 0.702254 0.178078
C201  C     C_3   0.938399 0.232545 0.540529 -0.418455
C202  C     C_3   0.935252 0.209417 0.455794 -0.807928
H47   H     H_    0.915949 0.250924 0.432692 0.278122
H48   H     H_    0.976016 0.199478 0.400880 0.227831
H49   H     H_    0.911304 0.159488 0.469718 0.225726
H50   H     H_    0.957532 0.189806 0.562110 0.200407
H51   H     H_    0.897641 0.234385 0.597909 0.186216
C203  C     C_3   0.019158 0.761129 0.609924 -0.423372
C204  C     C_3   0.062439 0.786778 0.518491 -0.807798
H52   H     H_    0.096598 0.749249 0.490156 0.274678
H53   H     H_    0.045053 0.792422 0.470823 0.243995
H54   H     H_    0.078079 0.839612 0.525051 0.216339
H55   H     H_    0.990034 0.805026 0.635413 0.208310
H56   H     H_    0.035131 0.756601 0.659337 0.184592
H57   H     H_    0.272928 0.000482 0.465207 0.183869
H58   H     H_    0.732195 0.000455 0.526239 0.186586
H59   H     H_    0.772948 0.500485 0.465178 0.183852
H60   H     H_    0.232197 0.500454 0.526148 0.186576
H61   H     H_    0.628265 0.839112 0.447551 0.187932
H62   H     H_    0.352928 0.169431 0.585722 0.194082
H63   H     H_    0.363668 0.824790 0.567268 0.196719
H64   H     H_    0.589230 0.168639 0.609126 0.171204
H65   H     H_    0.128043 0.338986 0.447956 0.187905
H66   H     H_    0.852919 0.669481 0.585733 0.194097
H67   H     H_    0.863488 0.324813 0.567565 0.196897
H68   H     H_    0.089234 0.668675 0.609099 0.171265
C205  C     C_3   0.087100 0.804531 0.783077 -0.336339
C206  C     C_3   0.085627 0.865741 0.721931 -0.686250
H69   H     H_    0.044290 0.887452 0.748063 0.214185
H70   H     H_    0.113828 0.909552 0.716206 0.256275
H71   H     H_    0.096295 0.846447 0.653795 0.232085
H72   H     H_    0.093012 0.753028 0.747734 0.169281
H73   H     H_    0.046735 0.798478 0.841420 0.170537
C207  C     C_3   0.845974 0.090717 0.256214 -0.307630
C208  C     C_3   0.884799 0.087978 0.298460 -0.695549
H74   H     H_    0.911794 0.135343 0.279108 0.248707
H75   H     H_    0.861945 0.085203 0.372620 0.227049
H76   H     H_    0.909764 0.039133 0.277622 0.224088
H77   H     H_    0.803881 0.087280 0.310101 0.178962
H78   H     H_    0.850204 0.041147 0.217879 0.179156
C209  C     C_3   0.915880 0.801248 0.218602 -0.318842
C210  C     C_3   0.916769 0.861393 0.279705 -0.689085
H79   H     H_    0.956975 0.887349 0.250813 0.215290
H80   H     H_    0.885942 0.902519 0.289609 0.249774
H81   H     H_    0.909566 0.839379 0.346077 0.223466
H82   H     H_    0.909668 0.749314 0.254791 0.181617
H83   H     H_    0.956511 0.796454 0.160864 0.171547
C211  C     C_3   0.082291 0.203759 0.785228 -0.345474
C212  C     C_3   0.074951 0.281846 0.765277 -0.848417
H84   H     H_    0.066312 0.314989 0.824735 0.252367
H85   H     H_    0.111030 0.303427 0.707235 0.256097
H86   H     H_    0.040490 0.286180 0.749386 0.238557
H87   H     H_    0.091570 0.170194 0.726050 0.226236
H88   H     H_    0.041975 0.187147 0.837187 0.201962
C213  C     C_3   0.587102 0.304520 0.783091 -0.336354
C214  C     C_3   0.585619 0.365722 0.721943 -0.686257
H89   H     H_    0.544280 0.387427 0.748081 0.214188
H90   H     H_    0.613819 0.409538 0.716207 0.256278
H91   H     H_    0.596283 0.346421 0.653812 0.232105
H92   H     H_    0.593016 0.253013 0.747751 0.169277
H93   H     H_    0.546739 0.298464 0.841438 0.170530
C215  C     C_3   0.345979 0.590717 0.256217 -0.307530
C216  C     C_3   0.384805 0.587985 0.298459 -0.695754
H94   H     H_    0.411798 0.635353 0.279105 0.248746
H95   H     H_    0.361953 0.585210 0.372619 0.227038
H96   H     H_    0.409773 0.539143 0.277622 0.224118
H97   H     H_    0.303886 0.587279 0.310107 0.178952
H98   H     H_    0.350209 0.541146 0.217886 0.179151
C217  C     C_3   0.415882 0.301256 0.218612 -0.318836
C218  C     C_3   0.416764 0.361407 0.279714 -0.689080
H99   H     H_    0.456968 0.387368 0.250825 0.215288
H100  H     H_    0.385935 0.402529 0.289611 0.249774
H101  H     H_    0.409559 0.339398 0.346088 0.223461
H102  H     H_    0.409672 0.249325 0.254805 0.181615
H103  H     H_    0.456515 0.296465 0.160878 0.171551
C219  C     C_3   0.582294 0.703719 0.785187 -0.345376
C220  C     C_3   0.574946 0.781787 0.765168 -0.848194
H104  H     H_    0.566255 0.814955 0.824626 0.252285
H105  H     H_    0.611037 0.803376 0.707158 0.256153
H106  H     H_    0.540516 0.786071 0.749192 0.238474
H107  H     H_    0.591586 0.670121 0.726031 0.226198
H108  H     H_    0.541976 0.687118 0.837146 0.201942
H109  H     H_    0.086403 0.851329 0.085330 0.168950
H110  H     H_    0.931961 0.168484 0.912646 0.165402
H111  H     H_    0.923586 0.842178 0.911941 0.164709
H112  H     H_    0.076606 0.157604 0.088729 0.170211
H113  H     H_    0.586417 0.351347 0.085324 0.168956
H114  H     H_    0.431949 0.668473 0.912646 0.165415
H115  H     H_    0.423601 0.342165 0.911938 0.164705
H116  H     H_    0.576584 0.657630 0.088731 0.170195
H117  H     H_    0.144058 0.847469 0.151063 0.136018
H118  H     H_    0.883876 0.198498 0.831169 0.132938
H119  H     H_    0.869252 0.829834 0.840262 0.126228
H120  H     H_    0.130694 0.171883 0.161069 0.133316
H121  H     H_    0.644075 0.347494 0.151051 0.136021
H122  H     H_    0.383854 0.698464 0.831181 0.132989
H123  H     H_    0.369270 0.329817 0.840255 0.126234
H124  H     H_    0.630666 0.671928 0.161085 0.133281

loop_
_geom_bond_atom_site_label_1
_geom_bond_atom_site_label_2
_ccdc_geom_bond_type
C85   C182  S    
C4    O20   A    
C122  H6    S    
C9    C169  A    
C34   C42   A    
C134  O36   A    
C181  C187  A    
C200  H42   S    
C6    O22   A    
C27   C99   A    
C195  H35   S    
C170  C178  A    
C175  C183  A    
C42   C109  A    
C24   C96   A    
C113  H121  S    
C192  H24   S    
C30   C38   A    
C110  H118  S    
Cu6   O14   S    
Cu3   Cu8   S    
C90   O1    A    
C104  H112  S    
C2    O13   A    
C3    O19   A    
Cu11  O44   S    
Cu1   Cu6   S    
Cu11  O33   S    
C1    O17   A    
C150  C201  S    
C136  O44   A    
C196  H33   S    
C132  H16   S    
C121  H5    S    
C147  C155  A    
C85   O6    A    
C218  H101  S    
Cu6   O6    S    
C216  H96   S    
C8    O24   A    
C90   C177  S    
Cu11  Cu12  S    
C124  H8    S    
C11   C167  A    
C82   C98   A    
C136  O34   A    
C13   H61   S    
C73   C81   A    
C215  C216  S    
C161  C163  A    
Cu1   O1    S    
C162  C164  A    
C107  H115  S    
C11   C173  A    
C105  H113  S    
C84   C100  A    
Cu4   Cu7   S    
C207  C208  S    
C121  C129  A    
C190  H17   S    
C37   C114  A    
C27   C35   A    
C203  C204  S    
C205  C206  S    
C21   C29   A    
C81   C121  A    
C23   C31   A    
C189  H20   S    
C24   C32   A    
C5    C70   S    
C212  H84   S    
C146  C154  A    
C134  O42   A    
C137  O39   A    
C217  H103  S    
C63   C71   A    
Cu1   O25   S    
C36   C44   A    
Cu3   O3    S    
C220  H104  S    
C115  H123  S    
C199  C200  S    
C12   C174  A    
C200  H44   S    
C58   C140  S    
C176  C184  A    
C103  H111  S    
C8    C71   S    
C191  H26   S    
C48   C96   A    
C56   C134  S    
C217  C218  S    
C148  C162  A    
C64   C211  S    
C33   C41   A    
C18   H66   S    
C183  C188  A    
C215  H98   S    
C14   H62   S    
C206  H71   S    
C142  C150  A    
C21   C93   A    
C78   C94   A    
C211  H88   S    
C9    C165  A    
C210  H79   S    
C89   O29   A    
C130  H14   S    
C49   C97   A    
C21   C42   A    
C22   C41   A    
C51   C107  A    
Cu6   O30   S    
C116  H124  S    
C24   C43   A    
Cu3   O19   S    
C82   C122  A    
C161  C165  A    
C17   C175  A    
C60   C138  S    
C18   C176  A    
C199  H45   S    
C6    C69   S    
C213  H92   S    
C102  H110  S    
C139  O47   A    
C69   C77   A    
C53   C135  S    
C31   C127  A    
C45   C93   A    
C174  C182  A    
C71   C79   A    
C155  C191  S    
C92   O32   A    
C149  C203  S    
C179  C186  A    
C217  H102  S    
C57   C139  S    
C11   C176  A    
C17   C144  A    
C1    C74   S    
C105  C113  A    
C18   C143  A    
C78   C118  A    
Cu9   O48   S    
C149  C151  A    
Cu12  O35   S    
Cu10  O47   S    
C214  H89   S    
C205  H73   S    
C66   C74   A    
C6    O9    A    
C68   C219  S    
C49   C57   A    
C124  C132  A    
C201  H50   S    
C197  H40   S    
C62   C207  S    
C52   C60   A    
C59   C67   A    
C209  H82   S    
C53   C61   A    
C141  C159  A    
C20   C174  A    
Cu8   O16   S    
C23   C95   A    
C55   C63   A    
C86   C181  S    
C56   C64   A    
C15   H63   S    
Cu10  O38   S    
C19   H67   S    
C45   C53   A    
C22   C94   A    
C171  C179  A    
C118  H2    S    
C169  C177  A    
C218  H100  S    
C208  H75   S    
C50   C98   A    
Cu7   O15   S    
C194  H27   S    
C7    C72   S    
C104  C112  A    
C125  H9    S    
C206  H69   S    
C191  C192  S    
C145  C163  A    
C187  H59   S    
C146  C164  A    
C14   C147  A    
C52   C100  A    
C210  H81   S    
C16   C145  A    
C178  C186  A    
C92   O3    A    
C197  C198  S    
C25   C38   A    
C46   C94   A    
C27   C40   A    
C10   C166  A    
C107  C115  A    
C91   C180  S    
C182  C188  A    
C89   C178  S    
Cu6   O22   S    
C28   C36   A    
C2    C73   S    
C190  H18   S    
C25   C97   A    
C212  H85   S    
C120  H4    S    
C106  H114  S    
C67   C75   A    
C207  H77   S    
C20   H68   S    
C203  H55   S    
C204  H54   S    
C143  C151  A    
C22   C30   A    
Cu2   O10   S    
C20   C141  A    
C190  H19   S    
C15   C146  A    
C202  H49   S    
Cu7   O31   S    
C68   C76   A    
C135  O43   A    
C184  C187  A    
C195  H36   S    
Cu1   O17   S    
C32   C128  A    
C152  C197  S    
C220  H106  S    
C144  C152  A    
C172  C180  A    
C219  H107  S    
Cu5   O5    S    
C192  H23   S    
C150  C152  A    
C129  H13   S    
Cu9   Cu10  S    
Cu11  O36   S    
C13   C171  A    
C114  H122  S    
C211  C212  S    
C140  O48   A    
C108  H116  S    
C117  C125  A    
Cu8   O32   S    
C25   C33   A    
C216  H95   S    
C119  C127  A    
C219  C220  S    
C194  H29   S    
Cu5   O13   S    
C76   C84   A    
C80   C120  A    
C158  C168  A    
C202  H47   S    
C5    O21   A    
C193  H31   S    
C164  C165  A    
C135  O33   A    
C29   C125  A    
C198  H37   S    
C40   C115  A    
C101  C109  A    
C177  C185  A    
C188  H60   S    
C103  C111  A    
C91   O4    A    
C202  H48   S    
C4    C75   S    
Cu9   O45   S    
Cu2   Cu5   S    
Cu12  O34   S    
C89   O2    A    
C162  C166  A    
C1    O14   A    
C2    O18   A    
C138  O46   A    
Cu9   O40   S    
C79   C119  A    
C193  C194  S    
C201  H51   S    
C86   O5    A    
C101  H109  S    
C153  C155  A    
C133  O35   A    
C154  C156  A    
C112  H120  S    
C133  O41   A    
C173  C181  A    
C204  H52   S    
C157  C159  A    
C83   C99   A    
C158  C160  A    
C74   C82   A    
C138  O40   A    
Cu2   O2    S    
Cu4   O20   S    
C200  H43   S    
C91   O31   A    
C47   C103  A    
C201  C202  S    
C50   C58   A    
C4    O15   A    
C163  C166  A    
C119  H3    S    
C198  H39   S    
C147  C161  A    
C209  C210  S    
C38   C113  A    
C49   C105  A    
C54   C62   A    
C28   C39   A    
C66   C215  S    
C131  H15   S    
C23   C44   A    
C19   C173  A    
C79   C95   A    
C92   C179  S    
Cu11  O41   S    
C196  H32   S    
C46   C54   A    
C210  H80   S    
C196  H34   S    
C193  H30   S    
C45   C101  A    
Cu2   O26   S    
C19   C142  A    
C157  C167  A    
C102  C110  A    
C140  O38   A    
C35   C131  A    
Cu12  O43   S    
C199  H46   S    
C154  C193  S    
C123  C131  A    
C151  C199  S    
C57   C65   A    
C88   O28   A    
C120  C128  A    
C26   C37   A    
C10   C170  A    
C111  H119  S    
Cu3   O27   S    
C87   O8    A    
C108  C116  A    
C36   C132  A    
C189  H21   S    
C55   C133  S    
C128  H12   S    
C17   H65   S    
C75   C83   A    
C215  H97   S    
C214  H90   S    
C205  H72   S    
C90   O30   A    
C77   C93   A    
C44   C111  A    
C16   C170  A    
C60   C68   A    
C72   C80   A    
C39   C116  A    
C29   C37   A    
C153  C195  S    
C50   C106  A    
Cu5   O29   S    
C9    C172  A    
C148  C156  A    
C83   C123  A    
C185  H57   S    
C214  H91   S    
Cu10  O39   S    
C198  H38   S    
C30   C126  A    
C191  H25   S    
Cu4   O28   S    
C70   C78   A    
C141  C149  A    
C208  H74   S    
C159  C168  A    
C46   C102  A    
C106  C114  A    
C139  O37   A    
C194  H28   S    
C77   C117  A    
C195  C196  S    
C206  H70   S    
C7    O12   A    
C59   C137  S    
C211  H87   S    
C48   C104  A    
C65   C73   A    
C5    O10   A    
C15   C169  A    
C160  C167  A    
C58   C66   A    
C156  C189  S    
Cu7   O23   S    
Cu2   O18   S    
C80   C96   A    
C203  H56   S    
C189  C190  S    
C86   O26   A    
C145  C153  A    
C28   C100  A    
C32   C40   A    
C213  H93   S    
C52   C108  A    
Cu9   O37   S    
C62   C70   A    
C207  H78   S    
C117  H1    S    
C85   O25   A    
C8    O11   A    
C26   C34   A    
C143  C157  A    
C51   C99   A    
C204  H53   S    
C14   C172  A    
C126  H10   S    
C63   C209  S    
C87   C184  S    
Cu10  O46   S    
C88   C183  S    
C109  H117  S    
C67   C217  S    
C186  H58   S    
C197  H41   S    
C220  H105  S    
C87   O27   A    
C16   H64   S    
C219  H108  S    
C54   C136  S    
C192  H22   S    
C88   O7    A    
C123  H7    S    
Cu8   O8    S    
C209  H83   S    
C3    C76   S    
C10   C171  A    
Cu5   O21   S    
C26   C98   A    
C12   C175  A    
C127  H11   S    
C7    O23   A    
C41   C110  A    
C33   C129  A    
C51   C59   A    
C43   C112  A    
Cu4   O4    S    
C144  C158  A    
C35   C43   A    
C218  H99   S    
C47   C55   A    
C216  H94   S    
Cu8   O24   S    
C208  H76   S    
C61   C69   A    
C48   C56   A    
Cu3   O11   S    
Cu1   O9    S    
C142  C160  A    
C3    O16   A    
C12   C168  A    
C61   C205  S    
Cu12  O42   S    
C84   C124  A    
C213  C214  S    
Cu7   O7    S    
C81   C97   A    
C65   C213  S    
C31   C39   A    
C64   C72   A    
C180  C185  A    
Cu4   O12   S    
C212  H86   S    
C34   C130  A    
C47   C95   A    
C118  C126  A    
C13   C148  A    
C122  C130  A    
C137  O45   A    
