data_str_m2_o40_o41_f0_fof.sym.32
_audit_creation_date              2013-03-05T15:40:55-0500
_audit_creation_method            fapswitch 2.2
_symmetry_space_group_name_H-M    P1
_symmetry_Int_Tables_number       1
_space_group_crystal_system       triclinic
_cell_length_a                    27.911577
_cell_length_b                    18.668192
_cell_length_c                    16.752678
_cell_angle_alpha                 89.896886
_cell_angle_beta                  62.850214
_cell_angle_gamma                 89.759883
_cell_volume                      7767.25523789

loop_
_atom_site_label
_atom_site_type_symbol
_atom_site_description
_atom_site_fract_x
_atom_site_fract_y
_atom_site_fract_z
_atom_type_partial_charge
O1    O     O_R   0.255040 0.869590 0.478480 -0.591502
O2    O     O_R   0.744960 0.130410 0.521520 -0.594074
O3    O     O_R   0.744960 0.869590 0.521520 -0.590942
O4    O     O_R   0.255040 0.130410 0.478480 -0.597838
O5    O     O_R   0.755040 0.369590 0.478480 -0.598510
O6    O     O_R   0.244960 0.630410 0.521520 -0.591332
O7    O     O_R   0.244960 0.369590 0.521520 -0.594129
O8    O     O_R   0.755040 0.630410 0.478480 -0.593079
O9    O     O_R   0.182050 0.796550 0.624440 -0.585856
O10   O     O_R   0.817950 0.203450 0.375560 -0.574742
O11   O     O_R   0.817950 0.796550 0.375560 -0.546556
O12   O     O_R   0.182050 0.203450 0.624440 -0.579597
O13   O     O_R   0.682050 0.296550 0.624440 -0.582127
O14   O     O_R   0.317950 0.703450 0.375560 -0.578810
O15   O     O_R   0.317950 0.296550 0.375560 -0.548663
O16   O     O_R   0.682050 0.703450 0.624440 -0.588632
Cu1   Cu    Cu3+1 0.209920 0.785290 0.495070 0.921497
Cu2   Cu    Cu3+1 0.790080 0.214710 0.504930 0.944162
Cu3   Cu    Cu3+1 0.790080 0.785290 0.504930 1.000942
Cu4   Cu    Cu3+1 0.209920 0.214710 0.495070 0.936200
Cu5   Cu    Cu3+1 0.709920 0.285290 0.495070 0.927606
Cu6   Cu    Cu3+1 0.290080 0.714710 0.504930 0.951441
Cu7   Cu    Cu3+1 0.290080 0.285290 0.504930 1.001536
Cu8   Cu    Cu3+1 0.709920 0.714710 0.495070 0.932224
C1    C     C_R   0.296119 0.731213 0.328171 0.855795
C2    C     C_R   0.703656 0.268354 0.671741 0.822629
C3    C     C_R   0.703729 0.731492 0.671673 0.838895
C4    C     C_R   0.296695 0.267680 0.328104 0.802769
C5    C     C_R   0.796415 0.231863 0.328231 0.888902
C6    C     C_R   0.203226 0.767466 0.672000 0.794816
C7    C     C_R   0.204253 0.230406 0.671593 0.843896
C8    C     C_R   0.796267 0.768518 0.328328 0.805209
O17   O     O_R   0.250530 0.763330 0.367210 -0.606317
O18   O     O_R   0.749470 0.236670 0.632790 -0.599788
O19   O     O_R   0.749470 0.763330 0.632790 -0.599219
O20   O     O_R   0.250530 0.236670 0.367210 -0.603370
O21   O     O_R   0.750530 0.263330 0.367210 -0.619734
O22   O     O_R   0.249470 0.736670 0.632790 -0.592645
O23   O     O_R   0.249470 0.263330 0.632790 -0.598812
O24   O     O_R   0.750530 0.736670 0.367210 -0.602516
O25   O     O_R   0.177260 0.690030 0.513710 -0.600884
O26   O     O_R   0.822740 0.309970 0.486290 -0.583261
O27   O     O_R   0.822740 0.690030 0.486290 -0.550858
O28   O     O_R   0.177260 0.309970 0.513710 -0.585842
O29   O     O_R   0.677260 0.190030 0.513710 -0.602140
O30   O     O_R   0.322740 0.809970 0.486290 -0.587867
O31   O     O_R   0.322740 0.190030 0.486290 -0.546116
O32   O     O_R   0.677260 0.809970 0.513710 -0.596332
C9    C     C_R   0.200479 0.630758 0.514379 0.857154
C10   C     C_R   0.803364 0.368399 0.472494 0.848786
C11   C     C_R   0.804148 0.631939 0.469656 0.786204
C12   C     C_R   0.196489 0.368411 0.527461 0.859410
C13   C     C_R   0.700757 0.130599 0.513543 0.852286
C14   C     C_R   0.299558 0.869400 0.485253 0.786541
C15   C     C_R   0.303834 0.131879 0.470284 0.788760
C16   C     C_R   0.696295 0.868204 0.529104 0.848429
H1    H     H_    0.493755 0.781122 0.649869 0.127801
H2    H     H_    0.514528 0.206588 0.322573 0.189980
H3    H     H_    0.413336 0.782433 0.635594 0.186415
H4    H     H_    0.594900 0.205134 0.334953 0.123783
H5    H     H_    0.022374 0.259732 0.553264 0.118376
H6    H     H_    0.005712 0.732279 0.357238 0.194731
H7    H     H_    0.955530 0.256605 0.499820 0.122170
H8    H     H_    0.086052 0.728352 0.371301 0.121863
C17   C     C_R   0.074888 0.620838 0.427116 0.032461
C18   C     C_R   0.957346 0.370686 0.474008 0.009734
C19   C     C_R   0.977338 0.625171 0.410544 0.072259
C20   C     C_R   0.037558 0.374460 0.533507 0.018407
C21   C     C_R   0.576541 0.110392 0.420078 0.036250
C22   C     C_R   0.425002 0.887693 0.573732 0.088269
C23   C     C_R   0.477882 0.113503 0.407629 0.070455
C24   C     C_R   0.524215 0.883778 0.584049 0.031060
C25   C     C_R   0.060951 0.681229 0.391703 -0.235779
C26   C     C_R   0.973613 0.307596 0.500716 -0.193217
C27   C     C_R   0.013185 0.683635 0.384320 -0.154650
C28   C     C_R   0.011536 0.309873 0.533409 -0.193208
C29   C     C_R   0.566352 0.163291 0.369821 -0.227280
C30   C     C_R   0.438636 0.829249 0.612405 -0.116326
C31   C     C_R   0.518458 0.164638 0.363480 -0.152089
C32   C     C_R   0.486615 0.827757 0.618618 -0.230484
C33   C     C_R   0.992086 0.563269 0.443443 0.019565
C34   C     C_R   0.023823 0.436994 0.500713 0.047554
C35   C     C_R   0.039490 0.562141 0.455244 0.044101
C36   C     C_R   0.980598 0.436118 0.478596 0.044556
C37   C     C_R   0.488451 0.057619 0.455152 0.017276
C38   C     C_R   0.512519 0.941527 0.540447 0.040567
C39   C     C_R   0.537498 0.056419 0.462033 0.042702
C40   C     C_R   0.463296 0.942982 0.534215 0.011051
C41   C     C_R   0.451419 0.001007 0.491693 -0.050031
C42   C     C_R   0.549025 0.998897 0.505762 -0.042851
C43   C     C_R   0.962602 0.499988 0.455792 -0.054419
C44   C     C_R   0.053657 0.500003 0.488383 -0.049009
C45   C     C_R   0.367834 0.941900 0.514327 -0.032736
C46   C     C_R   0.632531 0.058010 0.483710 0.041966
C47   C     C_R   0.611609 0.938216 0.550409 0.040621
C48   C     C_R   0.388825 0.061580 0.447197 -0.020353
C49   C     C_R   0.890019 0.433863 0.445936 0.059887
C50   C     C_R   0.132752 0.560824 0.481950 0.048872
C51   C     C_R   0.113773 0.437047 0.536807 0.051328
C52   C     C_R   0.893244 0.564960 0.432940 -0.029026
C53   C     C_R   0.325552 0.937587 0.488872 -0.124800
C54   C     C_R   0.674673 0.062459 0.509699 -0.075084
C55   C     C_R   0.664964 0.935601 0.542275 -0.064081
C56   C     C_R   0.335262 0.064444 0.456276 -0.132939
C57   C     C_R   0.836698 0.434349 0.453898 -0.076297
C58   C     C_R   0.174248 0.563277 0.509568 -0.072646
C59   C     C_R   0.165039 0.435467 0.537627 -0.059617
C60   C     C_R   0.838017 0.565502 0.448685 -0.125856
C61   C     C_R   0.307768 0.000406 0.466027 -0.250851
C62   C     C_R   0.692348 0.999669 0.532791 -0.268614
C63   C     C_R   0.811756 0.500103 0.456649 -0.274957
C64   C     C_R   0.191129 0.499882 0.532940 -0.284848
H9    H     H_    0.270809 0.000089 0.459764 0.184866
H10   H     H_    0.729150 0.000022 0.539539 0.184175
H11   H     H_    0.770167 0.500413 0.468788 0.186157
H12   H     H_    0.226626 0.500106 0.543564 0.183131
C65   C     C_R   0.403085 0.001290 0.483647 0.067972
C66   C     C_R   0.597380 0.998526 0.513919 0.013688
C67   C     C_R   0.914921 0.499828 0.445743 0.038801
C68   C     C_R   0.099609 0.499579 0.503612 0.010232
C69   C     C_R   0.572634 0.883629 0.592819 -0.051213
C70   C     C_R   0.428148 0.115299 0.402745 -0.047931
C71   C     C_R   0.374395 0.891923 0.572692 -0.075042
C72   C     C_R   0.625644 0.108488 0.426104 -0.058273
C73   C     C_R   0.077235 0.378203 0.564199 -0.057599
C74   C     C_R   0.928512 0.625266 0.401940 -0.044383
C75   C     C_R   0.920018 0.370186 0.439100 -0.065637
C76   C     C_R   0.124764 0.615618 0.429853 -0.059291
C77   C     C_R   0.205641 0.740087 0.966823 0.031047
C78   C     C_R   0.781344 0.237416 0.044254 0.029104
C79   C     C_R   0.782458 0.761101 0.043305 0.023912
C80   C     C_R   0.234061 0.208125 0.941051 0.024244
C81   C     C_R   0.716080 0.258269 0.957925 0.022500
C82   C     C_R   0.265694 0.708200 0.059717 0.025604
C83   C     C_R   0.294130 0.240535 0.033767 0.025745
C84   C     C_R   0.717362 0.739235 0.956844 0.023849
C85   C     C_R   0.247055 0.688187 0.931694 0.053029
C86   C     C_R   0.732773 0.276610 0.087523 0.053041
C87   C     C_R   0.734663 0.720710 0.086001 0.046926
C88   C     C_R   0.274780 0.260532 0.907239 0.045049
C89   C     C_R   0.764437 0.218671 0.914905 0.047563
C90   C     C_R   0.224579 0.760394 0.093584 0.052502
C91   C     C_R   0.253136 0.188347 0.068895 0.046832
C92   C     C_R   0.765143 0.779652 0.914160 0.045791
C93   C     C_R   0.274167 0.667960 0.982544 0.045741
C94   C     C_R   0.698682 0.283615 0.046238 0.045124
C95   C     C_R   0.700629 0.713131 0.044694 0.046548
C96   C     C_R   0.308497 0.270368 0.948435 0.047978
C97   C     C_R   0.798527 0.211636 0.956155 0.046057
C98   C     C_R   0.190762 0.769717 0.052432 0.048909
C99   C     C_R   0.225760 0.168196 0.018449 0.046489
C100  C     C_R   0.799179 0.787233 0.955467 0.047213
C101  C     C_R   0.133773 0.809255 0.956469 0.056266
C102  C     C_R   0.861074 0.183797 0.046864 0.058917
C103  C     C_R   0.861262 0.816444 0.046669 0.062730
C104  C     C_R   0.162386 0.141175 0.928180 0.055736
C105  C     C_R   0.637384 0.314030 0.954103 0.059049
C106  C     C_R   0.337536 0.641313 0.072659 0.064926
C107  C     C_R   0.365714 0.310123 0.043924 0.060285
C108  C     C_R   0.638635 0.683723 0.953398 0.062363
C109  C     C_R   0.112585 0.841724 0.902054 -0.115632
C110  C     C_R   0.885995 0.156713 0.098660 -0.130508
C111  C     C_R   0.885909 0.843705 0.098740 -0.128687
C112  C     C_R   0.126752 0.134235 0.889035 -0.122510
C113  C     C_R   0.613427 0.342646 0.901620 -0.123415
C114  C     C_R   0.373459 0.634748 0.111102 -0.114192
C115  C     C_R   0.387185 0.342122 0.098139 -0.124704
C116  C     C_R   0.614058 0.656343 0.901281 -0.127884
C117  C     C_R   0.135067 0.824217 0.810882 -0.278688
C118  C     C_R   0.865404 0.176873 0.188747 -0.224813
C119  C     C_R   0.865151 0.823710 0.188952 -0.254221
C120  C     C_R   0.139071 0.168552 0.807935 -0.256184
C121  C     C_R   0.634595 0.323420 0.811132 -0.273600
C122  C     C_R   0.361541 0.669643 0.191627 -0.260009
C123  C     C_R   0.364929 0.324231 0.189210 -0.246267
C124  C     C_R   0.634859 0.676272 0.811041 -0.253543
H13   H     H_    0.120497 0.851343 0.768935 0.191877
H14   H     H_    0.883188 0.154561 0.228873 0.188971
H15   H     H_    0.882565 0.846291 0.229304 0.206619
H16   H     H_    0.115164 0.157693 0.773421 0.189508
H17   H     H_    0.617555 0.346932 0.770547 0.190828
H18   H     H_    0.385683 0.658875 0.225852 0.183705
H19   H     H_    0.379538 0.351020 0.231115 0.203898
H20   H     H_    0.617508 0.653590 0.770651 0.186712
C125  C     C_R   0.177466 0.775084 0.771544 -0.120077
C126  C     C_R   0.820742 0.222355 0.229444 -0.075462
C127  C     C_R   0.820842 0.777965 0.229434 -0.128583
C128  C     C_R   0.183049 0.214336 0.768654 -0.111662
C129  C     C_R   0.678918 0.277352 0.770658 -0.123115
C130  C     C_R   0.317494 0.715649 0.230933 -0.094163
C131  C     C_R   0.322668 0.275188 0.228518 -0.126798
C132  C     C_R   0.679130 0.722083 0.770580 -0.097416
C133  C     C_R   0.197448 0.740481 0.826705 0.082000
C134  C     C_R   0.795756 0.249187 0.177617 0.077304
C135  C     C_R   0.796608 0.750341 0.177108 0.060480
C136  C     C_R   0.210541 0.234643 0.818976 0.059319
C137  C     C_R   0.702906 0.248904 0.823169 0.061032
C138  C     C_R   0.289670 0.735750 0.180837 0.095302
C139  C     C_R   0.302908 0.240603 0.173343 0.058678
C140  C     C_R   0.703291 0.749831 0.822952 0.057018
C141  C     C_R   0.178933 0.763289 0.916419 0.079261
C142  C     C_R   0.812759 0.223364 0.089727 0.087193
C143  C     C_R   0.813487 0.776080 0.089163 0.078117
C144  C     C_R   0.202092 0.194921 0.896365 0.076373
C145  C     C_R   0.685345 0.273693 0.911668 0.076948
C146  C     C_R   0.297887 0.695421 0.104080 0.097495
C147  C     C_R   0.320939 0.263794 0.083916 0.079287
C148  C     C_R   0.686379 0.724157 0.910935 0.073565
C149  C     C_R   0.111523 0.819924 0.050143 -0.181537
C150  C     C_R   0.882526 0.173907 0.953351 -0.169574
C151  C     C_R   0.882501 0.826731 0.953201 -0.174631
C152  C     C_R   0.160992 0.095032 0.995971 -0.175114
C153  C     C_R   0.615372 0.323234 0.047816 -0.171570
C154  C     C_R   0.338665 0.594416 0.005903 -0.169613
C155  C     C_R   0.387377 0.321406 0.950455 -0.185156
C156  C     C_R   0.617362 0.673477 0.046878 -0.172932
C157  C     C_R   0.141125 0.804979 0.095771 -0.222021
C158  C     C_R   0.851213 0.184847 0.909652 -0.212482
C159  C     C_R   0.851366 0.815200 0.909361 -0.211732
C160  C     C_R   0.190766 0.109279 0.041684 -0.204760
C161  C     C_R   0.646084 0.310842 0.092344 -0.214630
C162  C     C_R   0.308972 0.608589 0.960011 -0.206669
C163  C     C_R   0.357682 0.306284 0.905178 -0.220620
C164  C     C_R   0.648452 0.685123 0.090773 -0.213446
C165  C     C_R   0.234776 0.683345 0.796650 -0.145328
C166  C     C_R   0.754532 0.301422 0.209275 -0.195125
C167  C     C_R   0.756376 0.697177 0.208277 -0.176030
C168  C     C_R   0.246260 0.292915 0.794756 -0.165502
C169  C     C_R   0.743624 0.195993 0.791649 -0.176832
C170  C     C_R   0.253393 0.793775 0.205251 -0.209262
C171  C     C_R   0.266263 0.183065 0.203190 -0.185497
C172  C     C_R   0.743488 0.803040 0.791786 -0.164632
C173  C     C_R   0.259537 0.658489 0.847211 -0.183747
C174  C     C_R   0.722237 0.312543 0.167377 -0.230704
C175  C     C_R   0.724697 0.684696 0.165653 -0.211343
C176  C     C_R   0.278748 0.304390 0.836212 -0.212337
C177  C     C_R   0.775114 0.183234 0.834661 -0.212484
C178  C     C_R   0.220353 0.804503 0.164462 -0.229861
C179  C     C_R   0.241424 0.158219 0.152928 -0.205511
C180  C     C_R   0.775120 0.815625 0.834475 -0.212881
H21   H     H_    0.071080 0.838737 0.090890 0.182742
H22   H     H_    0.924037 0.159907 0.911234 0.174389
H23   H     H_    0.923756 0.841399 0.911035 0.174583
H24   H     H_    0.138472 0.045743 0.013199 0.175878
H25   H     H_    0.573960 0.338149 0.089247 0.178134
H26   H     H_    0.361043 0.544774 0.989534 0.175688
H27   H     H_    0.427527 0.340579 0.909330 0.179522
H28   H     H_    0.576119 0.658728 0.088997 0.175228
H29   H     H_    0.123499 0.818261 0.166361 0.138600
H30   H     H_    0.869810 0.174625 0.838312 0.137851
H31   H     H_    0.869788 0.825850 0.838129 0.140940
H32   H     H_    0.186822 0.071748 0.093331 0.136084
H33   H     H_    0.627238 0.320694 0.163785 0.136869
H34   H     H_    0.312702 0.570669 0.908956 0.135833
H35   H     H_    0.375030 0.319898 0.834723 0.143267
H36   H     H_    0.630014 0.674494 0.162011 0.140363
H37   H     H_    0.244655 0.654988 0.735118 0.165062
H38   H     H_    0.747061 0.336230 0.264995 0.173556
H39   H     H_    0.749382 0.662600 0.264081 0.171470
H40   H     H_    0.248478 0.332107 0.745744 0.169533
H41   H     H_    0.751296 0.162010 0.735132 0.173788
H42   H     H_    0.250817 0.832886 0.254458 0.166362
H43   H     H_    0.257067 0.154395 0.264341 0.168772
H44   H     H_    0.750502 0.837548 0.735914 0.175634
H45   H     H_    0.289703 0.617339 0.816859 0.131024
H46   H     H_    0.690429 0.351930 0.196674 0.140022
H47   H     H_    0.693731 0.644443 0.194410 0.138730
H48   H     H_    0.305319 0.350135 0.814372 0.139155
H49   H     H_    0.806606 0.143396 0.805583 0.138674
H50   H     H_    0.193132 0.849840 0.186637 0.140746
H51   H     H_    0.211886 0.116614 0.183159 0.134872
H52   H     H_    0.806073 0.855895 0.805718 0.140218
O33   O     O_R   0.051640 0.926880 0.885090 -0.591076
O34   O     O_R   0.948360 0.073120 0.114910 -0.575598
O35   O     O_R   0.948360 0.926880 0.114910 -0.580307
O36   O     O_R   0.051640 0.073120 0.885090 -0.591264
O37   O     O_R   0.551640 0.426880 0.885090 -0.587659
O38   O     O_R   0.448360 0.573120 0.114910 -0.587584
O39   O     O_R   0.448360 0.426880 0.114910 -0.582269
O40   O     O_R   0.551640 0.573120 0.885090 -0.578477
Cu9   Cu    Cu3+1 0.495240 0.500000 0.924150 0.926792
Cu10  Cu    Cu3+1 0.504760 0.500000 0.075850 0.940422
Cu11  Cu    Cu3+1 0.995240 0.000000 0.924150 0.927664
Cu12  Cu    Cu3+1 0.004760 1.000000 0.075850 0.941787
C181  C     C_R   0.927882 0.900383 0.064878 0.818124
C182  C     C_R   0.077316 0.090904 0.930312 0.822795
C183  C     C_R   0.071872 0.900105 0.935312 0.794930
C184  C     C_R   0.927975 0.099806 0.064745 0.836692
C185  C     C_R   0.428010 0.400258 0.064837 0.798181
C186  C     C_R   0.572101 0.599635 0.935137 0.827384
C187  C     C_R   0.571863 0.400035 0.935366 0.813923
C188  C     C_R   0.422790 0.591123 0.069635 0.819673
O41   O     O_R   0.940620 0.926560 0.986760 -0.595251
O42   O     O_R   0.059380 0.073440 0.013240 -0.592841
O43   O     O_R   0.059380 0.926560 0.013240 -0.610065
O44   O     O_R   0.940620 0.073440 0.986760 -0.593254
O45   O     O_R   0.440620 0.426560 0.986760 -0.612095
O46   O     O_R   0.559380 0.573440 0.013240 -0.594201
O47   O     O_R   0.559380 0.426560 0.013240 -0.592797
O48   O     O_R   0.440620 0.573440 0.986760 -0.594970
C189  C     C_2   0.578562 0.833475 0.657182 0.396724
H53   H     H_    0.568275 0.777366 0.659579 0.059252
O49   O     O_2   0.595290 0.854958 0.708628 -0.560948
C190  C     C_2   0.419878 0.165456 0.340768 0.369233
H54   H     H_    0.403278 0.145350 0.297865 0.041228
O50   O     O_2   0.427753 0.229677 0.341459 -0.548958
C191  C     C_2   0.324694 0.859771 0.646522 0.422168
H55   H     H_    0.285673 0.870224 0.649709 0.055722
O51   O     O_2   0.325385 0.826421 0.708716 -0.561589
C192  C     C_2   0.673123 0.147953 0.358880 0.396868
H56   H     H_    0.669998 0.203513 0.343142 0.076214
O52   O     O_2   0.716500 0.117533 0.319230 -0.561863
C193  C     C_2   0.073131 0.329266 0.637803 0.409270
H57   H     H_    0.052144 0.278697 0.650275 0.047173
O53   O     O_2   0.091304 0.346748 0.688812 -0.563933
C194  C     C_2   0.919431 0.678782 0.344028 0.387992
H58   H     H_    0.903655 0.660868 0.299039 0.043398
O54   O     O_2   0.925695 0.742857 0.349839 -0.558142
C195  C     C_2   0.926088 0.313401 0.372488 0.430365
H59   H     H_    0.946067 0.263135 0.370995 0.045109
O55   O     O_2   0.910784 0.323585 0.315716 -0.560599
C196  C     C_2   0.172306 0.652331 0.358993 0.409296
H60   H     H_    0.169489 0.706040 0.337180 0.074559
O56   O     O_2   0.215327 0.620765 0.321450 -0.563309

loop_
_geom_bond_atom_site_label_1
_geom_bond_atom_site_label_2
_geom_bond_distance
_ccdc_geom_bond_type
C196  O56   1.221009 D    
C136  C168  1.407233 A    
C116  C186  1.488574 S    
C138  C146  1.416253 A    
Cu2   Cu5   2.661031 S    
C59   C64   1.391869 A    
C23   C70   1.427605 A    
C74   C194  1.490774 S    
C189  H53   1.083073 S    
C155  H27   1.075399 S    
C130  C138  1.428124 A    
C157  H29   1.082157 S    
C118  H14   1.083289 S    
C70   C190  1.490464 S    
C1    C130  1.485692 S    
C38   C40   1.424705 A    
C135  C143  1.410461 A    
C129  C137  1.427271 A    
Cu6   O22   1.955624 S    
C133  C141  1.413800 A    
C5    C126  1.485223 S    
C6    O22   1.284281 A    
C178  H50   1.081557 S    
C139  C171  1.410842 A    
C154  C162  1.388140 A    
Cu4   O28   1.954375 S    
O39   C185  1.308427 A    
O3    Cu3   1.950745 S    
C176  H48   1.081542 S    
C36   C43   1.410091 A    
C136  C144  1.416104 A    
C78   C142  1.423009 A    
C49   C57   1.432337 A    
C91   C99   1.425647 A    
C140  C148  1.410487 A    
C25   C27   1.394550 A    
C86   C174  1.403081 A    
O25   C9    1.282591 A    
C101  C141  1.412968 A    
C29   C31   1.388602 A    
C192  O52   1.221131 D    
C114  C122  1.395225 A    
C91   C179  1.408457 A    
C105  C145  1.410472 A    
C114  C188  1.470175 S    
C150  H22   1.077326 S    
C38   C42   1.410482 A    
C45   C53   1.428756 A    
C94   C161  1.403758 A    
C152  C160  1.389696 A    
Cu12  O43   1.957619 S    
C3    O19   1.285903 A    
C101  C109  1.426580 A    
C194  H58   1.085728 S    
C156  C164  1.387650 A    
C13   C54   1.484300 S    
O12   Cu4   1.951298 S    
O13   Cu5   1.951435 S    
C184  O44   1.285970 A    
C50   C68   1.412684 A    
H2    C31   1.077457 S    
C34   C36   1.414667 A    
C160  H32   1.078488 S    
C87   C175  1.403394 A    
O33   C183  1.306269 A    
H6    C27   1.075760 S    
C80   C88   1.410498 A    
C149  H21   1.076034 S    
C78   C86   1.412602 A    
C102  C110  1.427837 A    
C164  H36   1.080736 S    
C123  H19   1.083259 S    
C85   C93   1.423259 A    
C124  H20   1.083270 S    
C48   C56   1.432828 A    
C46   C72   1.421542 A    
C45   C71   1.420828 A    
C16   C55   1.487329 S    
O2    C13   1.300186 A    
C107  C147  1.414781 A    
C9    C58   1.480351 S    
H7    C26   1.082627 S    
C156  H28   1.076809 S    
C50   C58   1.430799 A    
C60   C63   1.401172 A    
C135  C167  1.411025 A    
Cu11  O41   1.963912 S    
C185  O45   1.286402 A    
C149  C157  1.385106 A    
C102  C150  1.410981 A    
Cu3   O19   1.955999 S    
C134  C166  1.411256 A    
O10   Cu2   1.951435 S    
C107  C115  1.429197 A    
C108  C116  1.430156 A    
C133  C165  1.410891 A    
O4    Cu4   1.950747 S    
C77   C85   1.411765 A    
C40   C41   1.414381 A    
C46   C54   1.431224 A    
C140  C172  1.411020 A    
C95   C164  1.403263 A    
O6    Cu6   1.958438 S    
C195  O55   1.221724 D    
C14   C53   1.482765 S    
C21   C29   1.406454 A    
C122  H18   1.083654 S    
C23   C31   1.408190 A    
O15   C4    1.307353 A    
C26   C28   1.397037 A    
C55   C62   1.391431 A    
C52   C74   1.430648 A    
O7    C12   1.310753 A    
Cu2   O26   1.960296 S    
C30   C32   1.389931 A    
C193  O53   1.221492 D    
C18   C26   1.404463 A    
C92   C180  1.403432 A    
C183  O43   1.286571 A    
C10   C57   1.490698 S    
H8    C25   1.080326 S    
C62   H10   1.083526 S    
C77   C141  1.423675 A    
O28   C12   1.284533 A    
O16   C3    1.306679 A    
C132  C140  1.427386 A    
O29   C13   1.285812 A    
H1    C32   1.078818 S    
C119  H15   1.083299 S    
C45   C65   1.416687 A    
C103  C143  1.411698 A    
H3    C30   1.080272 S    
C117  H13   1.083247 S    
C33   C35   1.424291 A    
C2    C129  1.485536 S    
C47   C55   1.432798 A    
Cu10  O47   1.957619 S    
Cu5   O29   1.960296 S    
H5    C28   1.080125 S    
C175  H47   1.080712 S    
C161  H33   1.080900 S    
C52   C60   1.440351 A    
C107  C155  1.413382 A    
Cu8   O32   1.954375 S    
C6    C125  1.491272 S    
C48   C65   1.419020 A    
O40   Cu9   1.960688 S    
C105  C113  1.427384 A    
C103  C111  1.430181 A    
C15   C56   1.487710 S    
Cu4   O20   1.955998 S    
C49   C67   1.415858 A    
C108  C148  1.411738 A    
Cu4   Cu7   2.670593 S    
Cu12  O42   1.963912 S    
O5    Cu5   1.958440 S    
C52   C67   1.414860 A    
C153  H25   1.077547 S    
O9    C6    1.305572 A    
O26   C10   1.282134 A    
C41   C65   1.415687 A    
O11   C8    1.306677 A    
C19   C33   1.417532 A    
O12   C7    1.308491 A    
C43   C67   1.415656 A    
O13   C2    1.304095 A    
C112  C120  1.395333 A    
C19   C27   1.411212 A    
C3    C132  1.486423 S    
C4    C131  1.491558 S    
C64   H12   1.083644 S    
C79   C143  1.424256 A    
C115  C123  1.400022 A    
C116  C124  1.399884 A    
C171  H43   1.077504 S    
C172  H44   1.077531 S    
C8    C127  1.486358 S    
C126  C134  1.428025 A    
C168  H40   1.079432 S    
O37   C187  1.307332 A    
C137  C169  1.410996 A    
C106  C154  1.410416 A    
C151  C159  1.387632 A    
O1    Cu1   1.958440 S    
C166  C174  1.386952 A    
C112  C182  1.474118 S    
C20   C34   1.413420 A    
O14   Cu6   1.951435 S    
Cu7   O31   1.954376 S    
C44   C68   1.417309 A    
C24   C32   1.408137 A    
C46   C66   1.416272 A    
C47   C69   1.424071 A    
C86   C94   1.414242 A    
O7    Cu7   1.950745 S    
O8    Cu8   1.950747 S    
C98   C157  1.398565 A    
C79   C87   1.412601 A    
C173  H45   1.078364 S    
Cu11  Cu12  2.673112 S    
C20   C73   1.419919 A    
C1    O17   1.281371 A    
C170  H42   1.079569 S    
C24   C69   1.424504 A    
C158  H30   1.080752 S    
C137  C145  1.410624 A    
C186  O46   1.285439 A    
C166  H38   1.077262 S    
O36   C182  1.302363 A    
O11   Cu3   1.951298 S    
C42   C66   1.417208 A    
C83   C147  1.425498 A    
C96   C163  1.399063 A    
C82   C146  1.422577 A    
C104  C152  1.410572 A    
C53   C61   1.391048 A    
C108  C156  1.411681 A    
C100  C159  1.403245 A    
C34   C44   1.403574 A    
C194  O54   1.220062 D    
C153  C161  1.387838 A    
C75   C195  1.492626 S    
C12   C59   1.490563 S    
C72   C192  1.486743 S    
C111  C119  1.399886 A    
C21   C39   1.415775 A    
C120  H16   1.083681 S    
C50   C76   1.424872 A    
C196  H60   1.081337 S    
C57   C63   1.399021 A    
C121  H17   1.083260 S    
C159  H31   1.080734 S    
C79   C100  1.411988 A    
Cu1   O17   1.955623 S    
C102  C142  1.410536 A    
Cu3   O27   1.954376 S    
C189  O49   1.221362 D    
C80   C144  1.424602 A    
C191  H55   1.082744 S    
C106  C146  1.408187 A    
C17   C76   1.416582 A    
C151  H23   1.076809 S    
C19   C74   1.434335 A    
Cu9   O45   1.963912 S    
C84   C148  1.424215 A    
C37   C41   1.410447 A    
C93   C162  1.404450 A    
C21   C72   1.419762 A    
O40   C186  1.309585 A    
C17   C35   1.407567 A    
C82   C90   1.409474 A    
C110  C118  1.399389 A    
C118  C126  1.399027 A    
C122  C130  1.391776 A    
Cu6   O30   1.960296 S    
C169  H41   1.077380 S    
O4    C15   1.305389 A    
O5    C10   1.306194 A    
C188  O48   1.286045 A    
C20   C28   1.410593 A    
O38   C188  1.299510 A    
C106  C114  1.422370 A    
C90   C178  1.405979 A    
C82   C93   1.419391 A    
O37   Cu9   1.953128 S    
C192  H56   1.082658 S    
C24   C38   1.419225 A    
C119  C127  1.400021 A    
C115  C185  1.488482 S    
C51   C59   1.437403 A    
C81   C89   1.411897 A    
Cu1   Cu6   2.661031 S    
C48   C70   1.423199 A    
C165  C173  1.393047 A    
C90   C98   1.410157 A    
Cu3   Cu8   2.670593 S    
C84   C92   1.412572 A    
C101  C149  1.413748 A    
O10   C5    1.304639 A    
O27   C11   1.288706 A    
C193  H57   1.081753 S    
C97   C158  1.403289 A    
O14   C1    1.306714 A    
C174  H46   1.080691 S    
C117  C125  1.399071 A    
C195  H59   1.084021 S    
C33   C43   1.402690 A    
Cu5   O21   1.955623 S    
C4    O20   1.288065 A    
C92   C100  1.415204 A    
C39   C42   1.415169 A    
C5    O21   1.282011 A    
C88   C176  1.405492 A    
C80   C99   1.419282 A    
C99   C160  1.405600 A    
C177  H49   1.080767 S    
C81   C94   1.411897 A    
C81   C145  1.422371 A    
C111  C181  1.488460 S    
C22   C30   1.404957 A    
C49   C75   1.425455 A    
C22   C40   1.416698 A    
C88   C96   1.410801 A    
C89   C97   1.413818 A    
C51   C73   1.427534 A    
C58   C64   1.392119 A    
C35   C44   1.415756 A    
C87   C95   1.415181 A    
C171  C179  1.393437 A    
C131  C139  1.430333 A    
C123  C131  1.400426 A    
C56   C61   1.391880 A    
C124  C132  1.400022 A    
C113  C121  1.399532 A    
C17   C25   1.406701 A    
C18   C75   1.408475 A    
C71   C191  1.500950 S    
O39   Cu10  1.960687 S    
C51   C68   1.422211 A    
C23   C37   1.420560 A    
C22   C71   1.422425 A    
C2    O18   1.282319 A    
C7    O23   1.284318 A    
C11   C60   1.497991 S    
C7    C128  1.485161 S    
C187  O47   1.286320 A    
C167  H39   1.077519 S    
C113  C187  1.485428 S    
O15   Cu7   1.951298 S    
O16   Cu8   1.951298 S    
O30   C14   1.286096 A    
C109  C117  1.399588 A    
C37   C39   1.425351 A    
C47   C66   1.419289 A    
H4    C29   1.079412 S    
O33   Cu11  1.953128 S    
O34   Cu12  1.953125 S    
C73   C193  1.495351 S    
Cu9   Cu10  2.673112 S    
C69   C189  1.491473 S    
C190  O50   1.220815 D    
C191  O51   1.220448 D    
O1    C14   1.298254 A    
O3    C16   1.305610 A    
Cu11  O44   1.957616 S    
C78   C97   1.412279 A    
C139  C147  1.412986 A    
C162  H34   1.078784 S    
C154  H26   1.078834 S    
O35   Cu12  1.960687 S    
Cu2   O18   1.955624 S    
O8    C11   1.310275 A    
C128  C136  1.427307 A    
O9    Cu1   1.951435 S    
C190  H54   1.085574 S    
C170  C178  1.389425 A    
C85   C173  1.408203 A    
C104  C144  1.409721 A    
Cu10  O46   1.963912 S    
O31   C15   1.289897 A    
O32   C16   1.288994 A    
Cu9   O48   1.957616 S    
C89   C177  1.403410 A    
C127  C135  1.427422 A    
C125  C133  1.430905 A    
O2    Cu2   1.958438 S    
C155  C163  1.385096 A    
C138  C170  1.407255 A    
O36   Cu11  1.960688 S    
C61   H9    1.083521 S    
C167  C175  1.387311 A    
C105  C153  1.411223 A    
C150  C158  1.386871 A    
C179  H51   1.078113 S    
C180  H52   1.080718 S    
C103  C151  1.411695 A    
C165  H37   1.077125 S    
C77   C98   1.411615 A    
C152  H24   1.078605 S    
C120  C128  1.392776 A    
Cu7   O23   1.955999 S    
C121  C129  1.399080 A    
C83   C91   1.413311 A    
Cu8   O24   1.955998 S    
C182  O42   1.285293 A    
C76   C196  1.485548 S    
C8    O24   1.285895 A    
O6    C9    1.300486 A    
Cu1   O25   1.960296 S    
C168  C176  1.388293 A    
C84   C95   1.411946 A    
C54   C62   1.390945 A    
C18   C36   1.404169 A    
C163  H35   1.081924 S    
O34   C184  1.307929 A    
C104  C112  1.425727 A    
C134  C142  1.410136 A    
C83   C96   1.410815 A    
O38   Cu10  1.953125 S    
C181  O41   1.285446 A    
C172  C180  1.387366 A    
C63   H11   1.083230 S    
C169  C177  1.387113 A    
C109  C183  1.484436 S    
C110  C184  1.486108 S    
O35   C181  1.309584 A    
