data_str_m3_o38_o41_f0_fof.sym.2
_audit_creation_date              2012-10-26T21:33:17-0400
_audit_creation_method            fapswitch 2.2
_symmetry_space_group_name_H-M    P1
_symmetry_Int_Tables_number       1
_space_group_crystal_system       triclinic
_cell_length_a                    28.331952
_cell_length_b                    18.461281
_cell_length_c                    17.013571
_cell_angle_alpha                 90.000664
_cell_angle_beta                  59.284106
_cell_angle_gamma                 89.999941
_cell_volume                      7650.43440267

loop_
_atom_site_label
_atom_site_type_symbol
_atom_type_description
_atom_site_fract_x
_atom_site_fract_y
_atom_site_fract_z
_atom_type_partial_charge
C1    C     C_R   0.702720 0.273322 0.675540 0.921987
C2    C     C_R   0.091819 0.502959 0.521795 -0.057762
C3    C     C_R   0.187595 0.226300 0.902475 0.114373
C4    C     C_R   0.076207 0.097287 0.930905 0.979205
C5    C     C_R   0.934254 0.892454 0.058455 0.859896
C6    C     C_R   0.923798 0.097294 0.069089 0.979186
C7    C     C_R   0.065739 0.892450 0.941550 0.859905
C8    C     C_R   0.576203 0.597292 0.930909 0.979179
C9    C     C_R   0.434254 0.392455 0.058456 0.859897
C10   C     C_R   0.423800 0.597296 0.069087 0.979175
C11   C     C_R   0.565743 0.392452 0.941547 0.859901
C12   C     C_R   0.536781 0.133466 0.533698 -0.042508
C13   C     C_R   0.408183 0.002959 0.478199 -0.057755
C14   C     C_R   0.447390 0.873458 0.511098 0.077561
C15   C     C_R   0.463220 0.133465 0.466295 -0.042520
C16   C     C_R   0.552623 0.873459 0.488869 0.077562
C17   C     C_R   0.036775 0.633465 0.533716 -0.042501
C18   C     C_R   0.947384 0.373456 0.511113 0.077562
C19   C     C_R   0.963216 0.633464 0.466308 -0.042535
C20   C     C_R   0.052619 0.373457 0.488880 0.077560
C21   C     C_R   0.516555 0.199077 0.519738 -0.202186
C22   C     C_R   0.472863 0.807545 0.509260 -0.197965
C23   C     C_R   0.483441 0.199077 0.480265 -0.202208
C24   C     C_R   0.591823 0.002960 0.521786 -0.057759
C25   C     C_R   0.527153 0.807546 0.490700 -0.197961
C26   C     C_R   0.016546 0.699076 0.519760 -0.202141
C27   C     C_R   0.972857 0.307543 0.509276 -0.197959
C28   C     C_R   0.983435 0.699076 0.480282 -0.202190
C29   C     C_R   0.027148 0.307544 0.490713 -0.197971
C30   C     C_R   0.479303 0.068785 0.488671 0.037642
C31   C     C_R   0.524498 0.938296 0.500555 -0.009478
C32   C     C_R   0.520702 0.068786 0.511314 0.037638
C33   C     C_R   0.475513 0.938295 0.499416 -0.009477
C34   C     C_R   0.979298 0.568784 0.488685 0.037642
C35   C     C_R   0.106490 0.377232 0.470801 0.396479
C36   C     C_R   0.024494 0.438294 0.500568 -0.009479
C37   C     C_R   0.020697 0.568785 0.511329 0.037630
C38   C     C_R   0.975508 0.438294 0.499430 -0.009484
C39   C     C_R   0.954357 0.503462 0.488479 -0.065934
C40   C     C_R   0.045642 0.503463 0.511525 -0.065938
C41   C     C_R   0.454362 0.003463 0.488466 -0.065939
C42   C     C_R   0.545646 0.003464 0.511513 -0.065939
C43   C     C_R   0.877203 0.438555 0.496638 -0.066425
C44   C     C_R   0.107665 0.567085 0.547481 0.033025
C45   C     C_R   0.122798 0.438556 0.503361 -0.066433
C46   C     C_R   0.926174 0.630037 0.433249 0.368164
C47   C     C_R   0.892332 0.567084 0.452529 0.033048
C48   C     C_R   0.377207 0.938555 0.496628 -0.066424
C49   C     C_R   0.607668 0.067085 0.547472 0.033038
C50   C     C_R   0.622800 0.938557 0.503356 -0.066428
C51   C     C_R   0.392334 0.067085 0.452521 0.033047
C52   C     C_R   0.833176 0.437795 0.478340 -0.101420
C53   C     C_R   0.157572 0.565459 0.549851 -0.083230
C54   C     C_R   0.166824 0.437796 0.521661 -0.101425
C55   C     C_R   0.842426 0.565458 0.450155 -0.083234
C56   C     C_R   0.333178 0.937795 0.478334 -0.101422
C57   C     C_R   0.893514 0.377230 0.529193 0.396487
C58   C     C_R   0.657573 0.065459 0.549847 -0.083229
C59   C     C_R   0.666825 0.937796 0.521659 -0.101423
C60   C     C_R   0.342427 0.065459 0.450151 -0.083235
C61   C     C_R   0.817202 0.500599 0.454757 -0.314038
C62   C     C_R   0.182798 0.500600 0.545246 -0.314035
C63   C     C_R   0.317202 0.000599 0.454754 -0.314047
C64   C     C_R   0.682798 0.000600 0.545245 -0.314042
C65   C     C_R   0.648545 0.343486 0.105200 0.105078
C66   C     C_R   0.651301 0.416025 0.078654 -0.166750
C67   C     C_R   0.605597 0.461058 0.125952 -0.089121
C68   C     C_R   0.073821 0.630037 0.566769 0.368123
C69   C     C_R   0.557224 0.434644 0.200725 -0.078583
C70   C     C_R   0.554266 0.362720 0.228264 -0.156010
C71   C     C_R   0.599574 0.317073 0.180678 -0.167506
C72   C     C_R   0.361567 0.722182 0.894182 0.120098
C73   C     C_R   0.396397 0.781344 0.879117 -0.137929
C74   C     C_R   0.452737 0.775894 0.816441 -0.135751
C75   C     C_R   0.474711 0.711376 0.768535 -0.060391
C76   C     C_R   0.440626 0.651793 0.784494 -0.118158
C77   C     C_R   0.384360 0.656979 0.847301 -0.188297
C78   C     C_R   0.351404 0.343576 0.894878 0.105110
C79   C     C_R   0.606492 0.877233 0.470796 0.396472
C80   C     C_R   0.348597 0.416096 0.921520 -0.166803
C81   C     C_R   0.394268 0.461191 0.874279 -0.089067
C82   C     C_R   0.442658 0.434855 0.799467 -0.078349
C83   C     C_R   0.445666 0.362949 0.771835 -0.156133
C84   C     C_R   0.400392 0.317242 0.819364 -0.167531
C85   C     C_R   0.638437 0.722124 0.105817 0.120105
C86   C     C_R   0.603591 0.781277 0.120937 -0.137958
C87   C     C_R   0.547253 0.775794 0.183617 -0.135723
C88   C     C_R   0.525298 0.711252 0.231470 -0.060396
C89   C     C_R   0.559400 0.651679 0.215458 -0.118217
C90   C     C_R   0.426175 0.130038 0.433240 0.368160
C91   C     C_R   0.615665 0.656898 0.152649 -0.188246
C92   C     C_R   0.148469 0.843338 0.105313 0.105040
C93   C     C_R   0.151160 0.915904 0.078899 -0.166694
C94   C     C_R   0.105412 0.960855 0.126272 -0.089225
C95   C     C_R   0.057060 0.934331 0.200988 -0.078901
C96   C     C_R   0.054168 0.862381 0.228399 -0.155846
C97   C     C_R   0.099520 0.816816 0.180738 -0.167477
C98   C     C_R   0.861568 0.222141 0.894182 0.120095
C99   C     C_R   0.896412 0.281290 0.879097 -0.137942
C100  C     C_R   0.952751 0.275813 0.816422 -0.135717
C101  C     C_R   0.393519 0.877230 0.529180 0.396474
C102  C     C_R   0.974709 0.211283 0.768536 -0.060374
C103  C     C_R   0.940609 0.151714 0.784515 -0.118226
C104  C     C_R   0.884343 0.156926 0.847322 -0.188278
C105  C     C_R   0.851430 0.843531 0.894840 0.105103
C106  C     C_R   0.848648 0.916061 0.921436 -0.166786
C107  C     C_R   0.894335 0.961124 0.874167 -0.089097
C108  C     C_R   0.942717 0.934749 0.799373 -0.078461
C109  C     C_R   0.945700 0.862835 0.771786 -0.156079
C110  C     C_R   0.900409 0.817157 0.819343 -0.167516
C111  C     C_R   0.138454 0.221993 0.105802 0.120094
C112  C     C_R   0.302073 0.739508 0.323039 0.894563
C113  C     C_R   0.573825 0.130038 0.566755 0.368149
C114  C     C_R   0.103558 0.281100 0.120984 -0.138017
C115  C     C_R   0.047223 0.275527 0.183649 -0.135618
C116  C     C_R   0.025321 0.210942 0.231428 -0.060369
C117  C     C_R   0.059474 0.151416 0.215358 -0.118415
C118  C     C_R   0.115736 0.156724 0.152560 -0.188164
C119  C     C_R   0.780994 0.185670 0.837644 0.087534
C120  C     C_R   0.748734 0.124149 0.849864 -0.142853
C121  C     C_R   0.761640 0.078124 0.776271 -0.147929
C122  C     C_R   0.806739 0.093149 0.689858 -0.107550
C123  C     C_R   0.839057 0.154240 0.676801 -0.063734
C124  C     C_R   0.715584 0.271972 0.962479 -0.007580
C125  C     C_R   0.826396 0.200381 0.750160 -0.139763
C126  C     C_R   0.195977 0.780075 0.201457 0.115512
C127  C     C_R   0.179662 0.716700 0.254223 -0.177414
C128  C     C_R   0.152140 0.721046 0.349300 -0.068563
C129  C     C_R   0.140274 0.788588 0.392586 -0.037394
C130  C     C_R   0.155941 0.852043 0.340630 -0.167443
C131  C     C_R   0.183768 0.848035 0.245327 -0.162009
C132  C     C_R   0.219028 0.185634 0.162345 0.087570
C133  C     C_R   0.251308 0.124135 0.150125 -0.142883
C134  C     C_R   0.238408 0.078109 0.223713 -0.147942
C135  C     C_R   0.279411 0.745006 0.050924 -0.016445
C136  C     C_R   0.193295 0.093112 0.310121 -0.107535
C137  C     C_R   0.160959 0.154185 0.323178 -0.063756
C138  C     C_R   0.173614 0.200326 0.249824 -0.139663
C139  C     C_R   0.804006 0.780181 0.798580 0.115435
C140  C     C_R   0.820360 0.716830 0.745768 -0.177404
C141  C     C_R   0.847882 0.721215 0.650694 -0.068557
C142  C     C_R   0.859713 0.788773 0.607455 -0.037512
C143  C     C_R   0.844006 0.852207 0.659457 -0.167448
C144  C     C_R   0.816175 0.848159 0.754758 -0.162067
C145  C     C_R   0.280997 0.685676 0.837643 0.087515
C146  C     C_R   0.284411 0.271969 0.037531 -0.007588
C147  C     C_R   0.248750 0.624143 0.849857 -0.142841
C148  C     C_R   0.261666 0.578117 0.776261 -0.147917
C149  C     C_R   0.306762 0.593153 0.689850 -0.107573
C150  C     C_R   0.339068 0.654257 0.676798 -0.063723
C151  C     C_R   0.326397 0.700399 0.750159 -0.139778
C152  C     C_R   0.695990 0.280153 0.201429 0.115456
C153  C     C_R   0.679647 0.216793 0.254223 -0.177403
C154  C     C_R   0.652124 0.221163 0.349298 -0.068567
C155  C     C_R   0.640282 0.288715 0.392556 -0.037477
C156  C     C_R   0.655977 0.352157 0.340572 -0.167441
C157  C     C_R   0.720584 0.745012 0.949082 -0.016423
C158  C     C_R   0.683808 0.348124 0.245270 -0.162055
C159  C     C_R   0.719014 0.685650 0.162341 0.087555
C160  C     C_R   0.751277 0.624129 0.150105 -0.142847
C161  C     C_R   0.738371 0.578091 0.223684 -0.147937
C162  C     C_R   0.693270 0.593103 0.310099 -0.107579
C163  C     C_R   0.660951 0.654196 0.323172 -0.063765
C164  C     C_R   0.673611 0.700349 0.249827 -0.139738
C165  C     C_R   0.304008 0.280185 0.798585 0.115412
C166  C     C_R   0.320368 0.216834 0.745772 -0.177390
C167  C     C_R   0.347889 0.221219 0.650698 -0.068577
C168  C     C_R   0.215566 0.771947 0.962503 -0.007567
C169  C     C_R   0.359715 0.288777 0.607459 -0.037520
C170  C     C_R   0.344002 0.352211 0.659461 -0.167439
C171  C     C_R   0.316171 0.348163 0.754763 -0.162082
C172  C     C_R   0.779417 0.245015 0.050918 -0.016433
C173  C     C_R   0.784413 0.771971 0.037526 -0.007583
C174  C     C_R   0.220590 0.244989 0.949079 -0.016404
C175  C     C_R   0.766696 0.233310 0.917591 -0.041641
C176  C     C_R   0.297279 0.273321 0.324460 0.921991
C177  C     C_R   0.225369 0.774481 0.100206 -0.045460
C178  C     C_R   0.233316 0.233272 0.082400 -0.041663
C179  C     C_R   0.774610 0.774544 0.899826 -0.045428
C180  C     C_R   0.266691 0.733314 0.917596 -0.041645
C181  C     C_R   0.725386 0.274531 0.100181 -0.045435
C182  C     C_R   0.733307 0.733299 0.082405 -0.041652
C183  C     C_R   0.274608 0.274546 0.899832 -0.045421
C184  C     C_R   0.801210 0.230907 0.956175 -0.047775
C185  C     C_R   0.196992 0.795429 0.054396 -0.042649
C186  C     C_R   0.198803 0.230848 0.043813 -0.047773
C187  C     C_R   0.697927 0.739508 0.676961 0.894556
C188  C     C_R   0.802969 0.795508 0.945663 -0.042655
C189  C     C_R   0.301208 0.730921 0.956177 -0.047767
C190  C     C_R   0.697023 0.295493 0.054351 -0.042654
C191  C     C_R   0.698793 0.730895 0.043821 -0.047779
C192  C     C_R   0.302960 0.295520 0.945676 -0.042650
C193  C     C_R   0.626656 0.305369 0.958909 -0.232947
C194  C     C_R   0.348334 0.666329 0.069163 -0.276651
C195  C     C_R   0.373336 0.305375 0.041095 -0.232920
C196  C     C_R   0.651677 0.666317 0.930819 -0.276653
C197  C     C_R   0.126641 0.805354 0.958916 -0.232994
C198  C     C_R   0.202720 0.773321 0.675542 0.921978
C199  C     C_R   0.848328 0.166324 0.069174 -0.276655
C200  C     C_R   0.873340 0.805372 0.041093 -0.232935
C201  C     C_R   0.151696 0.166286 0.930786 -0.276671
C202  C     C_R   0.601847 0.329453 0.910027 -0.228137
C203  C     C_R   0.382622 0.653477 0.105942 -0.127173
C204  C     C_R   0.398147 0.329458 0.089975 -0.228122
C205  C     C_R   0.617383 0.653469 0.894049 -0.127183
C206  C     C_R   0.101839 0.829447 0.910029 -0.228149
C207  C     C_R   0.882620 0.153474 0.105947 -0.127179
C208  C     C_R   0.898149 0.829456 0.089975 -0.228123
C209  C     C_R   0.802074 0.239509 0.323039 0.894570
C210  C     C_R   0.117391 0.153456 0.894036 -0.127183
C211  C     C_R   0.622192 0.305916 0.821702 0.414571
C212  C     C_R   0.376916 0.693940 0.178639 0.392624
C213  C     C_R   0.377804 0.305920 0.178299 0.414552
C214  C     C_R   0.623086 0.693935 0.821358 0.392642
C215  C     C_R   0.122188 0.805915 0.821701 0.414605
C216  C     C_R   0.876916 0.193940 0.178640 0.392643
C217  C     C_R   0.877806 0.805919 0.178299 0.414560
C218  C     C_R   0.123087 0.193933 0.821357 0.392653
C219  C     C_R   0.677299 0.287973 0.772577 -0.120802
C220  C     C_R   0.797280 0.773320 0.324460 0.921987
C221  C     C_R   0.331224 0.737304 0.223159 -0.211091
C222  C     C_R   0.322698 0.287974 0.227426 -0.120791
C223  C     C_R   0.668775 0.737303 0.776841 -0.211111
C224  C     C_R   0.177294 0.787967 0.772582 -0.120821
C225  C     C_R   0.831226 0.237306 0.223159 -0.211095
C226  C     C_R   0.822700 0.787970 0.227424 -0.120798
C227  C     C_R   0.168775 0.237302 0.776841 -0.211121
C228  C     C_R   0.708583 0.286494 0.816328 -0.281903
C229  C     C_R   0.306329 0.763629 0.174878 -0.232546
C230  C     C_R   0.291412 0.286492 0.183679 -0.281928
C231  C     C_R   0.197927 0.239509 0.676961 0.894558
C232  C     C_R   0.693667 0.763630 0.825123 -0.232546
C233  C     C_R   0.208573 0.786483 0.816342 -0.281883
C234  C     C_R   0.806332 0.263632 0.174878 -0.232551
C235  C     C_R   0.791415 0.786487 0.183674 -0.281917
C236  C     C_R   0.193670 0.263621 0.825124 -0.232525
C237  C     C_R   0.691012 0.129674 0.535226 0.947724
C238  C     C_R   0.304526 0.872207 0.479408 0.856837
C239  C     C_R   0.308988 0.129674 0.464774 0.947720
C240  C     C_R   0.695474 0.872207 0.520589 0.856834
C241  C     C_R   0.191011 0.629674 0.535227 0.947726
C242  C     C_R   0.908180 0.502958 0.478210 -0.057754
C243  C     C_R   0.804526 0.372207 0.479410 0.856836
C244  C     C_R   0.808988 0.629673 0.464775 0.947715
C245  C     C_R   0.195474 0.372207 0.520590 0.856831
C246  C     C_R   0.683087 0.286815 0.913033 0.117672
C247  C     C_R   0.312418 0.726326 0.097507 0.114380
C248  C     C_R   0.316907 0.286818 0.086975 0.117654
C249  C     C_R   0.687585 0.726323 0.902486 0.114389
C250  C     C_R   0.183071 0.786797 0.913050 0.117693
C251  C     C_R   0.812417 0.226327 0.097511 0.114381
C252  C     C_R   0.816910 0.786813 0.086971 0.117666
H1    H     H_    0.047826 0.256461 0.483246 0.162096
H2    H     H_    0.217981 0.499864 0.554417 0.192565
H3    H     H_    0.373846 0.665971 0.609755 0.123081
H4    H     H_    0.351491 0.747926 0.738892 0.169140
H5    H     H_    0.688658 0.164139 0.221605 0.131086
H6    H     H_    0.640887 0.171912 0.388898 0.134086
H7    H     H_    0.619936 0.291997 0.466235 0.127732
H8    H     H_    0.647139 0.404398 0.374044 0.114208
H9    H     H_    0.696595 0.397619 0.205539 0.135206
H10   H     H_    0.786273 0.611741 0.083431 0.129691
H11   H     H_    0.763321 0.530688 0.213685 0.127584
H12   H     H_    0.683424 0.557440 0.366964 0.109369
H13   H     H_    0.282019 0.999863 0.445585 0.192562
H14   H     H_    0.626169 0.665893 0.390218 0.123037
H15   H     H_    0.648505 0.747868 0.261111 0.169121
H16   H     H_    0.311370 0.164176 0.778375 0.131099
H17   H     H_    0.359139 0.171974 0.611084 0.134113
H18   H     H_    0.380061 0.292068 0.533780 0.127677
H19   H     H_    0.352826 0.404457 0.626004 0.114222
H20   H     H_    0.303370 0.397651 0.794508 0.135223
H21   H     H_    0.551266 0.304593 0.829573 0.324375
H22   H     H_    0.411945 0.731193 0.242782 0.321104
H23   H     H_    0.448732 0.304594 0.170424 0.324382
H24   H     H_    0.717980 0.999864 0.554419 0.192562
H25   H     H_    0.588055 0.731190 0.757222 0.321099
H26   H     H_    0.051264 0.804601 0.829561 0.324380
H27   H     H_    0.911948 0.231193 0.242779 0.321099
H28   H     H_    0.948733 0.804597 0.170426 0.324394
H29   H     H_    0.088053 0.231196 0.757228 0.321097
H30   H     H_    0.600785 0.305161 0.031431 0.177841
H31   H     H_    0.349987 0.629396 0.018711 0.164430
H32   H     H_    0.399202 0.305170 0.968570 0.177816
H33   H     H_    0.650032 0.629375 0.981255 0.164467
H34   H     H_    0.100759 0.805140 0.031434 0.177877
H35   H     H_    0.849976 0.129385 0.018730 0.164452
H36   H     H_    0.899208 0.805166 0.968570 0.177828
H37   H     H_    0.971358 0.750712 0.466145 0.132409
H38   H     H_    0.150066 0.129322 0.981191 0.164530
H39   H     H_    0.752398 0.286275 0.773710 0.182443
H40   H     H_    0.280639 0.810588 0.201783 0.173497
H41   H     H_    0.247597 0.286261 0.226296 0.182459
H42   H     H_    0.719346 0.810597 0.798228 0.173519
H43   H     H_    0.252387 0.786271 0.773728 0.182429
H44   H     H_    0.780650 0.310597 0.201777 0.173513
H45   H     H_    0.747600 0.786259 0.226292 0.182455
H46   H     H_    0.219344 0.310594 0.798238 0.173516
H47   H     H_    0.179857 0.353097 0.374395 0.323439
H48   H     H_    0.952182 0.256459 0.516741 0.162080
H49   H     H_    0.958964 0.713588 0.352969 0.324310
H50   H     H_    0.820148 0.353095 0.625601 0.323441
H51   H     H_    0.041034 0.713589 0.647054 0.324355
H52   H     H_    0.679860 0.853097 0.374393 0.323439
H53   H     H_    0.458962 0.213592 0.352962 0.324348
H54   H     H_    0.320154 0.853097 0.625594 0.323449
H55   H     H_    0.541037 0.213593 0.647036 0.324371
H56   H     H_    0.688411 0.437158 0.020556 0.128181
H57   H     H_    0.607104 0.515742 0.102637 0.135656
H58   H     H_    0.521783 0.469608 0.236474 0.103832
H59   H     H_    0.028612 0.750712 0.533917 0.132388
H60   H     H_    0.516701 0.342112 0.285817 0.134895
H61   H     H_    0.596433 0.261041 0.201647 0.142002
H62   H     H_    0.379707 0.832078 0.914566 0.127513
H63   H     H_    0.479258 0.821974 0.804149 0.130443
H64   H     H_    0.518055 0.707633 0.718531 0.139126
H65   H     H_    0.457681 0.601928 0.747229 0.110856
H66   H     H_    0.358110 0.611020 0.857752 0.130339
H67   H     H_    0.311474 0.437169 0.979649 0.128186
H68   H     H_    0.392723 0.515858 0.897669 0.135630
H69   H     H_    0.478075 0.469863 0.763764 0.103768
H70   H     H_    0.547830 0.756462 0.483234 0.162090
H71   H     H_    0.483246 0.342400 0.714255 0.134903
H72   H     H_    0.403573 0.261224 0.798324 0.142011
H73   H     H_    0.620266 0.832029 0.085530 0.127517
H74   H     H_    0.520719 0.821867 0.195953 0.130442
H75   H     H_    0.481955 0.707482 0.281471 0.139165
H76   H     H_    0.542360 0.601793 0.252680 0.110835
H77   H     H_    0.641929 0.610944 0.142151 0.130308
H78   H     H_    0.188254 0.937122 0.020847 0.128174
H79   H     H_    0.106868 0.015562 0.103061 0.135713
H80   H     H_    0.021586 0.969233 0.236797 0.103922
H81   H     H_    0.471364 0.250713 0.466128 0.132421
H82   H     H_    0.016620 0.841690 0.285911 0.134886
H83   H     H_    0.096431 0.760764 0.201610 0.141990
H84   H     H_    0.879735 0.332033 0.914529 0.127516
H85   H     H_    0.979284 0.321882 0.804115 0.130439
H86   H     H_    0.018052 0.207519 0.718536 0.139162
H87   H     H_    0.957651 0.101839 0.747267 0.110845
H88   H     H_    0.858082 0.110974 0.857794 0.130332
H89   H     H_    0.811531 0.937164 0.979550 0.128183
H90   H     H_    0.892809 0.015800 0.897521 0.135655
H91   H     H_    0.978145 0.969735 0.763648 0.103800
H92   H     H_    0.452187 0.756461 0.516722 0.162072
H93   H     H_    0.983272 0.842256 0.714219 0.134895
H94   H     H_    0.903570 0.761133 0.798337 0.142003
H95   H     H_    0.120191 0.331883 0.085633 0.127531
H96   H     H_    0.020649 0.321563 0.196030 0.130427
H97   H     H_    0.981979 0.207099 0.281412 0.139286
H98   H     H_    0.042475 0.101496 0.252519 0.110791
H99   H     H_    0.142038 0.110797 0.141996 0.130285
H100  H     H_    0.713739 0.111752 0.916535 0.129690
H101  H     H_    0.736691 0.030723 0.786257 0.127582
H102  H     H_    0.816584 0.057497 0.632983 0.109355
H103  H     H_    0.528627 0.250713 0.533885 0.132415
H104  H     H_    0.873837 0.165946 0.609757 0.123063
H105  H     H_    0.851499 0.247899 0.738888 0.169130
H106  H     H_    0.188692 0.664054 0.221582 0.131074
H107  H     H_    0.140924 0.671784 0.388878 0.134040
H108  H     H_    0.119935 0.791852 0.466265 0.127848
H109  H     H_    0.147084 0.904277 0.374124 0.114188
H110  H     H_    0.196533 0.897541 0.205616 0.135178
H111  H     H_    0.286313 0.111754 0.083458 0.129700
H112  H     H_    0.263371 0.030722 0.213727 0.127592
H113  H     H_    0.183453 0.057458 0.366992 0.109378
H114  H     H_    0.782019 0.499863 0.445586 0.192566
H115  H     H_    0.126169 0.165875 0.390219 0.123014
H116  H     H_    0.148496 0.247829 0.261096 0.169070
H117  H     H_    0.811359 0.664171 0.778371 0.131093
H118  H     H_    0.859128 0.671970 0.611081 0.134112
H119  H     H_    0.880058 0.792065 0.533777 0.127678
H120  H     H_    0.852834 0.904453 0.626000 0.114223
H121  H     H_    0.803379 0.897647 0.794503 0.135215
H122  H     H_    0.213757 0.611737 0.916527 0.129688
H123  H     H_    0.236726 0.530706 0.786243 0.127577
H124  H     H_    0.316616 0.557500 0.632972 0.109351
O1    O     O_R   0.746490 0.236330 0.638080 -0.623391
O2    O     O_R   0.325830 0.813840 0.483730 -0.601351
O3    O     O_R   0.325830 0.186160 0.483730 -0.584336
O4    O     O_R   0.674170 0.813840 0.516270 -0.601351
O5    O     O_R   0.174170 0.686160 0.516270 -0.584387
O6    O     O_R   0.825830 0.313840 0.483730 -0.601349
O7    O     O_R   0.825830 0.686160 0.483730 -0.584343
O8    O     O_R   0.174170 0.313840 0.516270 -0.601353
O9    O     O_R   0.739960 0.127620 0.525000 -0.638795
O10   O     O_R   0.260040 0.872380 0.475000 -0.647035
O11   O     O_R   0.260040 0.127620 0.475000 -0.638795
O12   O     O_R   0.253510 0.763670 0.361920 -0.618811
O13   O     O_R   0.739960 0.872380 0.525000 -0.647034
O14   O     O_R   0.239960 0.627620 0.525000 -0.638786
O15   O     O_R   0.760040 0.372380 0.475000 -0.647034
O16   O     O_R   0.760040 0.627620 0.475000 -0.638787
O17   O     O_R   0.239960 0.372380 0.525000 -0.647034
O18   O     O_R   0.680700 0.294870 0.629350 -0.547510
O19   O     O_R   0.319300 0.705130 0.370650 -0.598231
O20   O     O_R   0.319300 0.294870 0.370650 -0.547513
O21   O     O_R   0.680700 0.705130 0.629350 -0.598232
O22   O     O_R   0.180700 0.794870 0.629350 -0.547505
O23   O     O_R   0.253510 0.236330 0.361920 -0.623392
O24   O     O_R   0.819300 0.205130 0.370650 -0.598236
O25   O     O_R   0.819300 0.794870 0.370650 -0.547515
O26   O     O_R   0.180700 0.205130 0.629350 -0.598236
O27   O     O_R   0.062020 0.072840 0.007170 -0.641912
O28   O     O_R   0.937980 0.927160 0.992830 -0.612486
O29   O     O_R   0.937980 0.072840 0.992830 -0.641977
O30   O     O_R   0.062020 0.927160 0.007170 -0.612518
O31   O     O_R   0.562020 0.572840 0.007170 -0.641969
O32   O     O_R   0.437980 0.427160 0.992830 -0.612471
O33   O     O_R   0.437980 0.572840 0.992830 -0.641998
O34   O     O_R   0.746490 0.763670 0.638080 -0.618796
O35   O     O_R   0.562020 0.427160 0.007170 -0.612489
O36   O     O_R   0.947860 0.073950 0.109290 -0.547515
O37   O     O_R   0.052140 0.926050 0.890710 -0.602258
O38   O     O_R   0.052140 0.073950 0.890710 -0.547527
O39   O     O_R   0.947860 0.926050 0.109290 -0.602259
O40   O     O_R   0.447860 0.573950 0.109290 -0.547509
O41   O     O_R   0.552140 0.426050 0.890710 -0.602252
O42   O     O_R   0.552140 0.573950 0.890710 -0.547511
O43   O     O_R   0.447860 0.426050 0.109290 -0.602254
O44   O     O_3   0.143471 0.328987 0.407141 -0.771436
O45   O     O_R   0.246490 0.736330 0.638080 -0.623386
O46   O     O_3   0.925514 0.683428 0.376751 -0.735501
O47   O     O_3   0.856534 0.328985 0.592851 -0.771459
O48   O     O_3   0.074484 0.683428 0.623265 -0.735514
O49   O     O_3   0.643474 0.828986 0.407139 -0.771448
O50   O     O_3   0.425514 0.183430 0.376745 -0.735496
O51   O     O_3   0.356541 0.828986 0.592840 -0.771461
O52   O     O_3   0.574485 0.183429 0.623254 -0.735498
O53   O     O_3   0.590594 0.305802 0.780975 -0.728245
O54   O     O_3   0.413597 0.686596 0.208934 -0.753817
O55   O     O_3   0.409404 0.305806 0.219023 -0.728248
O56   O     O_R   0.753510 0.263670 0.361920 -0.618801
O57   O     O_3   0.586404 0.686591 0.791065 -0.753797
O58   O     O_3   0.090593 0.805808 0.780967 -0.728244
O59   O     O_3   0.913598 0.186595 0.208935 -0.753875
O60   O     O_3   0.909405 0.805807 0.219025 -0.728253
O61   O     O_3   0.086401 0.186597 0.791072 -0.753815
O62   O     O_R   0.753510 0.736330 0.361920 -0.623390
O63   O     O_R   0.246490 0.263670 0.638080 -0.618789
O64   O     O_R   0.674170 0.186160 0.516270 -0.584354
Zn1   Zn    Zn3+2 0.792340 0.208750 0.507670 0.973350
Zn2   Zn    Zn3+2 0.494040 0.500000 0.919480 0.967183
Zn3   Zn    Zn3+2 0.005960 1.000000 0.080520 0.967134
Zn4   Zn    Zn3+2 0.994040 1.000000 0.919480 0.967168
Zn5   Zn    Zn3+2 0.207660 0.791250 0.492330 0.976129
Zn6   Zn    Zn3+2 0.207660 0.208750 0.492330 0.973369
Zn7   Zn    Zn3+2 0.792340 0.791250 0.507670 0.976162
Zn8   Zn    Zn3+2 0.292340 0.708750 0.507670 0.973363
Zn9   Zn    Zn3+2 0.707660 0.291250 0.492330 0.976162
Zn10  Zn    Zn3+2 0.707660 0.708750 0.492330 0.973381
Zn11  Zn    Zn3+2 0.292340 0.291250 0.507670 0.976174
Zn12  Zn    Zn3+2 0.505960 0.500000 0.080520 0.967164

loop_
_geom_bond_atom_site_label_1
_geom_bond_atom_site_label_2
_ccdc_geom_bond_type
C49   C113  A    
C105  C110  A    
C173  C188  A    
C126  C127  A    
C31   C42   A    
C7    O30   A    
C69   H58   S    
H26   O58   S    
C153  H5    S    
C50   C79   A    
C14   C33   A    
C114  C115  A    
C19   C46   A    
C124  C175  A    
C136  H113  S    
C16   C31   A    
C84   H72   S    
C111  C118  A    
C212  O54   S    
C50   C59   A    
C56   C238  S    
H55   O52   S    
C187  O34   A    
C52   C61   A    
O36   Zn3   S    
C109  H93   S    
C106  C107  A    
C176  O20   A    
C143  C144  A    
C208  C217  A    
C108  C109  A    
C157  C179  A    
O14   Zn8   S    
C134  H112  S    
C102  H86   S    
C123  H104  S    
C87   H74   S    
C95   H80   S    
C13   C51   A    
C66   H56   S    
C44   C53   A    
C214  O57   S    
O63   Zn11  S    
C29   H1    S    
C35   O44   S    
C218  O61   S    
C217  C226  A    
C241  O14   A    
C39   C242  A    
C200  C208  A    
O25   Zn7   S    
C58   C64   A    
C197  C206  A    
C7    C206  S    
C88   H75   S    
C13   C41   A    
C233  C250  A    
C101  O51   S    
C173  C252  S    
C164  H15   S    
C55   C244  S    
C165  C183  S    
C140  C141  A    
C135  C177  A    
O30   Zn3   S    
O42   Zn2   S    
C179  C188  A    
C67   H57   S    
O27   Zn3   S    
C168  C180  A    
C6    O36   A    
C147  H122  S    
C224  C233  A    
C157  C191  A    
C9    O32   A    
C236  H46   S    
O15   Zn9   S    
C181  C190  A    
C99   H84   S    
C26   H59   S    
C76   C77   A    
C63   H13   S    
C154  C155  A    
C243  O15   A    
C71   H61   S    
C173  C182  A    
C238  O10   A    
C49   C58   A    
C35   C45   A    
C223  C232  A    
C15   C30   A    
C105  C106  A    
O11   Zn6   S    
C16   C25   A    
C94   H79   S    
C215  C224  A    
C72   C73   A    
C157  C249  S    
C139  C140  A    
C22   H92   S    
C85   C191  S    
C156  C158  A    
C130  C131  A    
C18   C38   A    
C161  C162  A    
C93   H78   S    
C48   C101  A    
C12   C21   A    
C207  C216  A    
O23   Zn6   S    
C124  C246  S    
C8    C205  S    
C139  C179  S    
C2    C45   A    
C104  H88   S    
O1    Zn1   S    
C178  C186  A    
C2    C40   A    
C8    O31   A    
C88   C89   A    
C98   C99   A    
C155  C156  A    
O26   Zn6   S    
C152  C181  S    
C109  C110  A    
C4    O27   A    
O12   Zn5   S    
C97   H83   S    
C132  C178  S    
C165  C171  A    
C227  C231  S    
O34   Zn7   S    
O17   Zn11  S    
O9    Zn1   S    
C27   C29   A    
C147  C148  A    
C202  C211  A    
C128  C129  A    
C167  C169  A    
C85   C86   A    
C112  O12   A    
C176  C222  S    
C225  C234  A    
C197  C250  A    
C53   C241  S    
C37   C40   A    
C180  C189  A    
C51   C90   A    
C235  H45   S    
C38   C39   A    
C245  O8    A    
C78   C80   A    
C43   C52   A    
C198  O22   A    
C228  C246  A    
C170  C171  A    
C77   H66   S    
O39   Zn3   S    
O64   Zn9   S    
C209  O56   A    
C146  C178  A    
C139  C144  A    
C54   C245  S    
C46   O46   S    
C20   C35   A    
C172  C181  A    
C141  H118  S    
C176  O23   A    
C2    C44   A    
C22   C25   A    
C193  C246  A    
C30   C41   A    
C57   O47   S    
C219  C228  A    
C89   C91   A    
H27   O59   S    
C154  H6    S    
O10   Zn5   S    
O40   Zn12  S    
C79   O49   S    
H25   O57   S    
C66   C67   A    
C169  H18   S    
C160  H10   S    
C171  H20   S    
C91   H77   S    
C235  C252  A    
C199  C207  A    
H29   O61   S    
C92   C97   A    
C43   C242  A    
C24   C50   A    
H50   O47   S    
C34   C39   A    
C122  H102  S    
C135  C247  S    
C216  O59   S    
C52   C243  S    
C76   H65   S    
C220  O25   A    
O22   Zn5   S    
C245  O17   A    
C1    O18   A    
C195  H32   S    
C11   C202  S    
O31   Zn12  S    
C138  H116  S    
O41   Zn2   S    
C244  O16   A    
C9    C204  S    
C155  H7    S    
C161  H11   S    
C3    C174  S    
C83   C84   A    
C162  H12   S    
C117  H98   S    
C220  C226  S    
C19   C28   A    
H54   O51   S    
C107  H90   S    
C213  O55   S    
C140  H117  S    
C131  H110  S    
C239  O3    A    
C73   C74   A    
C120  C121  A    
C129  C130  A    
C111  C186  S    
C4    O38   A    
C231  O26   A    
C136  C137  A    
C5    O39   A    
C234  C251  A    
C47   C242  A    
C211  C219  A    
C172  C251  S    
C14   C22   A    
C59   C240  S    
C118  H99   S    
C163  H14   S    
C117  C118  A    
C112  O19   A    
C150  H3    S    
C166  C167  A    
C187  C223  S    
C231  O63   A    
C55   C61   A    
C228  H39   S    
O21   Zn10  S    
C98   C184  S    
C102  C103  A    
C80   H67   S    
C214  C223  A    
C43   C57   A    
H52   O49   S    
C229  C247  A    
C152  C153  A    
C222  C230  A    
O4    Zn10  S    
C116  H97   S    
C150  C151  A    
O5    Zn5   S    
C51   C60   A    
C151  H4    S    
C206  C215  A    
C87   C88   A    
C201  H38   S    
C34   C37   A    
C24   C42   A    
C112  C221  S    
C201  C210  A    
O37   Zn4   S    
C11   O41   A    
C183  C192  A    
C90   O50   S    
C124  C190  A    
C197  H34   S    
C120  H100  S    
C227  C236  A    
C193  H30   S    
C105  C188  S    
C28   H37   S    
C230  H41   S    
C69   C70   A    
H53   O50   S    
C110  H94   S    
C123  C125  A    
C132  C138  A    
C146  C248  S    
C177  C185  A    
C62   H2    S    
C103  H87   S    
C119  C175  S    
C148  H123  S    
C95   C96   A    
C70   C71   A    
O62   Zn10  S    
O56   Zn9   S    
C58   C237  S    
C10   C203  S    
C114  H95   S    
C8    O42   A    
C243  O6    A    
C209  C225  S    
C237  O64   A    
C70   H60   S    
C145  C147  A    
H21   O53   S    
C149  H124  S    
O24   Zn1   S    
C211  O53   S    
C152  C158  A    
C241  O5    A    
C142  H119  S    
C78   C192  S    
O32   Zn2   S    
C74   H63   S    
C86   C87   A    
C14   C101  A    
C195  C204  A    
C54   C62   A    
C238  O2    A    
C193  C202  A    
C244  O7    A    
C198  C224  S    
O16   Zn10  S    
C3    C236  A    
C18   C57   A    
C159  C160  A    
C60   C239  S    
C220  O62   A    
C121  C122  A    
C119  C125  A    
O19   Zn8   S    
C194  C247  A    
C21   C23   A    
C83   H71   S    
C133  C134  A    
C3    C201  A    
C108  H91   S    
C182  C191  A    
C127  C128  A    
C218  C227  A    
C168  C250  S    
O13   Zn7   S    
C162  C163  A    
O18   Zn9   S    
C46   C47   A    
C17   C68   A    
C27   H48   S    
O6    Zn1   S    
C200  H36   S    
C174  C183  A    
C119  C120  A    
C81   H68   S    
O2    Zn8   S    
O28   Zn4   S    
C195  C248  A    
C96   H82   S    
C216  C225  A    
C11   O35   A    
C16   C79   A    
C33   C41   A    
C36   C38   A    
C5    O28   A    
C149  C150  A    
C200  C252  A    
C5    C208  S    
H51   O48   S    
O43   Zn12  S    
C61   H114  S    
C145  C180  S    
C92   C93   A    
C73   H62   S    
C111  C114  A    
O8    Zn6   S    
C159  C182  S    
C94   C95   A    
C232  H42   S    
C20   C36   A    
C10   O40   A    
C65   C190  S    
O29   Zn4   S    
C82   C83   A    
C217  O60   S    
C221  C229  A    
C103  C104  A    
C106  H89   S    
C32   C42   A    
C142  C143  A    
C82   H69   S    
C209  O24   A    
C115  C116  A    
C175  C184  A    
C165  C166  A    
C169  C170  A    
C130  H109  S    
C163  C164  A    
C75   C76   A    
C81   C82   A    
C85   C91   A    
C144  H121  S    
C64   H24   S    
C59   C64   A    
C20   C29   A    
C60   C63   A    
C17   C26   A    
C68   O48   S    
O33   Zn2   S    
O45   Zn8   S    
C4    C210  S    
C116  C117  A    
C126  C177  S    
C213  C222  A    
C198  O45   A    
C196  C205  A    
C143  H120  S    
C135  C189  A    
O35   Zn12  S    
C127  H106  S    
C25   H70   S    
C132  C133  A    
C196  C249  A    
C137  H115  S    
C31   C33   A    
C7    O37   A    
H49   O46   S    
C75   H64   S    
H47   O44   S    
C15   C23   A    
C12   C32   A    
C146  C192  A    
C239  O11   A    
C240  O4    A    
C128  H107  S    
C125  H105  S    
C212  C221  A    
C237  O9    A    
C1    O1    A    
C115  H96   S    
C74   C75   A    
C9    O43   A    
C100  H85   S    
C36   C40   A    
C121  H101  S    
C148  C149  A    
C92   C185  S    
C134  C136  A    
C65   C71   A    
C204  C213  A    
O7    Zn7   S    
C226  C235  A    
C233  H43   S    
C67   C69   A    
C234  H44   S    
H28   O60   S    
C72   C77   A    
C53   C62   A    
C172  C184  A    
C99   C100  A    
C107  C108  A    
C158  H9    S    
C96   C97   A    
C100  C102  A    
C56   C63   A    
C1    C219  S    
C93   C94   A    
C17   C37   A    
C215  O58   S    
C6    C207  S    
C145  C151  A    
H22   O54   S    
C199  C251  A    
C45   C54   A    
C194  H31   S    
C21   H103  S    
C203  C212  A    
C44   C68   A    
C86   H73   S    
C196  H33   S    
C72   C189  S    
C170  H19   S    
C230  C248  A    
C187  O21   A    
C47   C55   A    
C12   C113  A    
C24   C49   A    
C48   C56   A    
C168  C185  A    
C159  C164  A    
C6    O29   A    
C229  H40   S    
C18   C27   A    
C167  H17   S    
C80   C81   A    
O3    Zn11  S    
C19   C34   A    
O38   Zn4   S    
C205  C214  A    
C13   C48   A    
C23   H81   S    
C232  C249  A    
C199  H35   S    
C137  C138  A    
C26   C28   A    
C210  C218  A    
C240  O13   A    
C160  C161  A    
C122  C123  A    
C141  C142  A    
C174  C186  A    
C15   C90   A    
C30   C32   A    
C129  H108  S    
C126  C131  A    
C98   C104  A    
C194  C203  A    
C10   O33   A    
C113  O52   S    
O20   Zn11  S    
H23   O55   S    
C78   C84   A    
C65   C66   A    
C133  H111  S    
C89   H76   S    
C166  H16   S    
C153  C154  A    
C156  H8    S    
