data_str_m12_o4_o4_f0_bcu.sym.25
_audit_creation_date              2013-03-05T15:54:53-0500
_audit_creation_method            fapswitch 2.2
_symmetry_space_group_name_H-M    P1
_symmetry_Int_Tables_number       1
_space_group_crystal_system       triclinic
_cell_length_a                    17.524695
_cell_length_b                    16.965806
_cell_length_c                    17.708134
_cell_angle_alpha                 89.611327
_cell_angle_beta                  89.926337
_cell_angle_gamma                 90.475601
_cell_volume                      5264.68532909

loop_
_atom_site_label
_atom_site_type_symbol
_atom_site_description
_atom_site_fract_x
_atom_site_fract_y
_atom_site_fract_z
_atom_type_partial_charge
C1    C     C_R   0.423269 0.332946 0.855968 -0.260204
C2    C     C_R   0.697137 0.392036 0.902980 -0.239531
C3    C     C_R   0.576078 0.665696 0.854117 -0.262345
C4    C     C_R   0.303597 0.607307 0.900329 -0.237403
C5    C     C_R   0.421289 0.673174 0.139975 -0.239281
C6    C     C_R   0.694969 0.607073 0.103614 -0.224110
C7    C     C_R   0.581718 0.324440 0.139287 -0.245024
C8    C     C_R   0.302403 0.391023 0.096037 -0.247896
C9    C     C_R   0.924801 0.832606 0.356357 -0.245439
C10   C     C_R   0.196360 0.894706 0.399401 -0.226728
C11   C     C_R   0.079531 0.171275 0.357442 -0.253283
C12   C     C_R   0.802991 0.106721 0.402023 -0.250392
C13   C     C_R   0.919850 0.172004 0.641589 -0.256050
C14   C     C_R   0.195745 0.109721 0.600082 -0.225795
C15   C     C_R   0.079392 0.827115 0.641307 -0.265656
C16   C     C_R   0.802878 0.890513 0.597147 -0.234854
H1    H     H_    0.466507 0.295122 0.833946 0.126376
H2    H     H_    0.751547 0.417968 0.915958 0.115056
H3    H     H_    0.532104 0.701340 0.829677 0.121309
H4    H     H_    0.248057 0.579966 0.900967 0.117153
H5    H     H_    0.462396 0.716070 0.158369 0.115162
H6    H     H_    0.749610 0.579909 0.100231 0.107905
H7    H     H_    0.541141 0.280918 0.159001 0.113976
H8    H     H_    0.248618 0.415122 0.080215 0.134528
H9    H     H_    0.968112 0.793938 0.335697 0.119820
H10   H     H_    0.250675 0.923401 0.404508 0.109635
H11   H     H_    0.037913 0.211511 0.335527 0.118896
H12   H     H_    0.749019 0.080073 0.414737 0.140550
H13   H     H_    0.960837 0.213903 0.662580 0.119816
H14   H     H_    0.251706 0.087091 0.590805 0.107626
H15   H     H_    0.042476 0.779030 0.658443 0.117128
H16   H     H_    0.748888 0.915708 0.583252 0.113519
N1    N     N_R   0.425360 0.368540 0.922560 -0.044344
N2    N     N_R   0.631460 0.425360 0.922560 -0.052456
N3    N     N_R   0.574640 0.631460 0.922560 -0.045938
N4    N     N_R   0.368540 0.574640 0.922560 -0.053226
N5    N     N_R   0.425360 0.631460 0.077440 -0.048151
N6    N     N_R   0.631460 0.574640 0.077440 -0.052094
N7    N     N_R   0.574640 0.368540 0.077440 -0.045980
N8    N     N_R   0.368540 0.425360 0.077440 -0.052030
N9    N     N_R   0.925360 0.868540 0.422560 -0.044458
N10   N     N_R   0.131460 0.925360 0.422560 -0.052586
N11   N     N_R   0.074640 0.131460 0.422560 -0.046535
N12   N     N_R   0.868540 0.074640 0.422560 -0.053334
N13   N     N_R   0.925360 0.131460 0.577440 -0.047105
N14   N     N_R   0.131460 0.074640 0.577440 -0.053158
N15   N     N_R   0.074640 0.868540 0.577440 -0.042732
N16   N     N_R   0.868540 0.925360 0.577440 -0.051690
C17   C     C_3   0.879174 0.328143 0.743355 -0.021820
C18   C     C_3   0.640639 0.855420 0.666614 -0.008657
C19   C     C_3   0.121749 0.846820 0.865619 -0.018617
C20   C     C_3   0.372478 0.173654 0.644432 -0.043283
C21   C     C_3   0.915347 0.697410 0.216261 -0.015670
C22   C     C_3   0.655420 0.126097 0.305927 -0.045626
C23   C     C_3   0.122776 0.326403 0.255156 -0.100856
C24   C     C_3   0.360445 0.860173 0.320244 -0.021208
C25   C     C_3   0.400759 0.822335 0.253627 -0.029523
C26   C     C_3   0.145769 0.363975 0.179846 -0.047002
C27   C     C_3   0.634364 0.165082 0.230963 -0.098466
C28   C     C_3   0.867749 0.658303 0.154922 -0.034891
C29   C     C_3   0.416935 0.209519 0.709249 -0.003576
C30   C     C_3   0.169800 0.799616 0.921649 -0.016618
C31   C     C_3   0.600455 0.815961 0.733960 -0.040560
C32   C     C_3   0.849553 0.366659 0.815249 -0.039948
H17   H     H_    0.942114 0.329614 0.735382 0.135866
H18   H     H_    0.680373 0.903347 0.683140 0.141719
H19   H     H_    0.115597 0.910324 0.879622 0.143055
H20   H     H_    0.372779 0.108093 0.642511 0.134650
H21   H     H_    0.960434 0.739043 0.195802 0.143322
H22   H     H_    0.700765 0.081575 0.299900 0.133236
H23   H     H_    0.060878 0.328195 0.269040 0.131596
H24   H     H_    0.346928 0.923285 0.311692 0.134490
H25   H     H_    0.453271 0.789193 0.268494 0.136594
H26   H     H_    0.187496 0.412538 0.186537 0.138226
H27   H     H_    0.573481 0.159771 0.213819 0.132629
H28   H     H_    0.861977 0.593227 0.161151 0.132237
H29   H     H_    0.458237 0.257086 0.693248 0.147493
H30   H     H_    0.146279 0.740277 0.936485 0.142351
H31   H     H_    0.537268 0.811271 0.729141 0.133062
H32   H     H_    0.805810 0.411865 0.804095 0.135383
C33   C     C_R   0.393044 0.699700 0.900948 0.217374
C34   C     C_R   0.320725 0.410726 0.865898 0.225197
C35   C     C_R   0.608221 0.299860 0.903566 0.232178
C36   C     C_R   0.678785 0.589275 0.864909 0.222911
C37   C     C_R   0.389880 0.299132 0.094832 0.220859
C38   C     C_R   0.320396 0.591467 0.133334 0.222968
C39   C     C_R   0.606661 0.700043 0.098588 0.210316
C40   C     C_R   0.682714 0.406309 0.129973 0.225472
C41   C     C_R   0.891284 0.199710 0.401313 0.230715
C42   C     C_R   0.822001 0.910236 0.365015 0.219516
C43   C     C_R   0.109243 0.800313 0.403461 0.219355
C44   C     C_R   0.180575 0.091667 0.366771 0.221324
C45   C     C_R   0.891332 0.798965 0.595404 0.216880
C46   C     C_R   0.818621 0.091278 0.631979 0.230471
C47   C     C_R   0.106418 0.200470 0.598726 0.223839
C48   C     C_R   0.179121 0.910765 0.634514 0.241293
N17   N     N_R   0.425340 0.631500 0.922560 -0.064181
N18   N     N_R   0.368500 0.425340 0.922560 -0.058897
N19   N     N_R   0.574660 0.368500 0.922560 -0.061134
N20   N     N_R   0.631500 0.574660 0.922560 -0.060509
N21   N     N_R   0.425340 0.368500 0.077440 -0.061974
N22   N     N_R   0.368500 0.574660 0.077440 -0.060830
N23   N     N_R   0.574660 0.631500 0.077440 -0.060261
N24   N     N_R   0.631500 0.425340 0.077440 -0.060810
N25   N     N_R   0.925340 0.131500 0.422560 -0.060616
N26   N     N_R   0.868500 0.925340 0.422560 -0.058480
N27   N     N_R   0.074660 0.868500 0.422560 -0.060647
N28   N     N_R   0.131500 0.074660 0.422560 -0.061609
N29   N     N_R   0.925340 0.868500 0.577440 -0.061373
N30   N     N_R   0.868500 0.074660 0.577440 -0.058595
N31   N     N_R   0.074660 0.131500 0.577440 -0.060364
N32   N     N_R   0.131500 0.925340 0.577440 -0.063683
Ni1   Ni    Ni4+2 0.500000 0.369720 0.000000 0.200390
Ni2   Ni    Ni4+2 0.630280 0.500000 0.000000 0.190463
Ni3   Ni    Ni4+2 0.500000 0.630280 0.000000 0.197910
Ni4   Ni    Ni4+2 0.369720 0.500000 0.000000 0.190713
Ni5   Ni    Ni4+2 0.000000 0.869720 0.500000 0.201020
Ni6   Ni    Ni4+2 0.130280 0.000000 0.500000 0.190222
Ni7   Ni    Ni4+2 0.000000 0.130280 0.500000 0.198219
Ni8   Ni    Ni4+2 0.869720 0.000000 0.500000 0.190101
C49   C     C_R   0.357874 0.356801 0.819632 0.055176
C50   C     C_R   0.685444 0.313395 0.887696 0.041974
C51   C     C_R   0.641445 0.642694 0.817169 0.053164
C52   C     C_R   0.316907 0.685185 0.887022 0.050344
C53   C     C_R   0.356263 0.649476 0.176486 0.050948
C54   C     C_R   0.682023 0.685442 0.118579 0.051010
C55   C     C_R   0.649087 0.346538 0.173504 0.053828
C56   C     C_R   0.312607 0.312333 0.110374 0.053886
C57   C     C_R   0.860477 0.856440 0.319076 0.057006
C58   C     C_R   0.185158 0.816390 0.385815 0.046447
C59   C     C_R   0.145394 0.148255 0.321307 0.053617
C60   C     C_R   0.813867 0.184962 0.385890 0.048955
C61   C     C_R   0.853184 0.148842 0.677108 0.047301
C62   C     C_R   0.182156 0.187618 0.616098 0.048942
C63   C     C_R   0.143574 0.852939 0.678444 0.031768
C64   C     C_R   0.814315 0.811371 0.611722 0.048695
C65   C     C_R   0.817837 0.287101 0.838687 0.011591
C66   C     C_R   0.640003 0.741958 0.710356 -0.002645
C67   C     C_R   0.229463 0.795029 0.860828 0.001062
C68   C     C_R   0.343374 0.242395 0.737603 0.006778
C69   C     C_R   0.800793 0.700595 0.187616 -0.015602
C70   C     C_R   0.652306 0.240601 0.269634 -0.001980
C71   C     C_R   0.177889 0.284872 0.156411 0.095533
C72   C     C_R   0.331491 0.770097 0.245506 0.004768
C73   C     C_R   0.293626 0.807704 0.302541 -0.010582
C74   C     C_R   0.146679 0.250835 0.220405 -0.001955
C75   C     C_R   0.681591 0.206501 0.334022 0.102223
C76   C     C_R   0.844103 0.739190 0.240985 0.004098
C77   C     C_R   0.302116 0.204714 0.681627 -0.012794
C78   C     C_R   0.184825 0.835384 0.809095 -0.034004
C79   C     C_R   0.679275 0.778446 0.652173 0.003381
C80   C     C_R   0.851545 0.252303 0.777051 -0.003729
C81   C     C_R   0.746099 0.258313 0.862928 0.061945
C82   C     C_R   0.665757 0.671547 0.742834 0.074851
C83   C     C_R   0.269859 0.729074 0.837266 0.068202
C84   C     C_R   0.329637 0.321975 0.751240 0.062420
C85   C     C_R   0.739972 0.737354 0.151050 0.078936
C86   C     C_R   0.675267 0.314760 0.244475 0.070735
C87   C     C_R   0.249803 0.256796 0.132289 0.039171
C88   C     C_R   0.326765 0.688174 0.241376 0.069477
C89   C     C_R   0.243099 0.767597 0.350486 0.068944
C90   C     C_R   0.170424 0.178255 0.248271 0.077199
C91   C     C_R   0.751381 0.237937 0.361626 0.038837
C92   C     C_R   0.833243 0.820040 0.251166 0.062791
C93   C     C_R   0.240235 0.241005 0.646816 0.075613
C94   C     C_R   0.178955 0.807237 0.735421 0.107820
C95   C     C_R   0.753608 0.753861 0.634450 0.064264
C96   C     C_R   0.826479 0.180027 0.748769 0.070281
C97   C     C_R   0.238265 0.684942 0.345094 -0.224912
C98   C     C_R   0.221061 0.135958 0.203550 -0.195405
C99   C     C_R   0.764547 0.319200 0.346555 -0.220894
C100  C     C_R   0.779316 0.860132 0.208172 -0.187457
C101  C     C_R   0.229652 0.322181 0.658813 -0.230138
C102  C     C_R   0.217317 0.739715 0.712696 -0.190093
C103  C     C_R   0.769785 0.674439 0.653712 -0.217049
C104  C     C_R   0.773497 0.138138 0.792413 -0.182205
C105  C     C_R   0.730904 0.177862 0.846365 -0.218078
C106  C     C_R   0.722693 0.632001 0.703179 -0.188000
C107  C     C_R   0.264247 0.701811 0.763109 -0.223311
C108  C     C_R   0.277349 0.363099 0.707048 -0.194602
C109  C     C_R   0.729437 0.818387 0.162939 -0.219194
C110  C     C_R   0.723466 0.358282 0.290960 -0.195366
C111  C     C_R   0.264002 0.176206 0.149089 -0.224827
C112  C     C_R   0.281903 0.645501 0.292616 -0.190470
H33   H     H_    0.201352 0.648573 0.378585 0.166299
H34   H     H_    0.235082 0.075533 0.216764 0.129199
H35   H     H_    0.810535 0.353143 0.368591 0.166142
H36   H     H_    0.771175 0.922752 0.215086 0.122940
H37   H     H_    0.184405 0.355956 0.635231 0.165069
H38   H     H_    0.213673 0.718849 0.655062 0.136895
H39   H     H_    0.820841 0.644836 0.638421 0.161522
H40   H     H_    0.759115 0.077559 0.780175 0.126972
H41   H     H_    0.683658 0.144692 0.867500 0.166053
H42   H     H_    0.737662 0.572141 0.717205 0.128403
H43   H     H_    0.295659 0.650600 0.744656 0.136647
H44   H     H_    0.268567 0.425549 0.714738 0.126927
H45   H     H_    0.682591 0.851303 0.141520 0.157191
H46   H     H_    0.736399 0.419528 0.279165 0.128053
H47   H     H_    0.311776 0.144120 0.128944 0.165513
H48   H     H_    0.278035 0.581849 0.289925 0.128074
C113  C     C_3   0.832068 0.354449 0.674361 -0.318508
C114  C     C_3   0.861964 0.432711 0.642675 -0.931694
H49   H     H_    0.856046 0.480017 0.685273 0.261672
H50   H     H_    0.923052 0.427591 0.626820 0.260357
H51   H     H_    0.828630 0.449410 0.591837 0.259012
H52   H     H_    0.833754 0.308749 0.630841 0.201186
H53   H     H_    0.770648 0.360768 0.689058 0.187033
C115  C     C_3   0.586616 0.876624 0.601157 -0.337870
C116  C     C_3   0.545030 0.953277 0.616162 -0.967205
H54   H     H_    0.513239 0.949821 0.670364 0.282102
H55   H     H_    0.587004 0.002243 0.618029 0.273888
H56   H     H_    0.503920 0.965526 0.570064 0.256501
H57   H     H_    0.620164 0.883651 0.548204 0.193710
H58   H     H_    0.543937 0.828716 0.592004 0.195542
C117  C     C_3   0.045423 0.807076 0.844220 -0.324194
C118  C     C_3   0.985883 0.816669 0.906298 -0.931323
H59   H     H_    0.005721 0.789072 0.959578 0.277353
H60   H     H_    0.974869 0.880144 0.916212 0.260195
H61   H     H_    0.931650 0.787709 0.889100 0.258808
H62   H     H_    0.023027 0.835423 0.792198 0.196683
H63   H     H_    0.053483 0.743302 0.832670 0.190636
C119  C     C_3   0.389441 0.212328 0.567362 -0.314187
C120  C     C_3   0.468245 0.189934 0.538900 -0.943278
H64   H     H_    0.513221 0.219967 0.572408 0.266944
H65   H     H_    0.475505 0.125311 0.544078 0.264232
H66   H     H_    0.474699 0.207916 0.478813 0.263734
H67   H     H_    0.346115 0.191117 0.526645 0.197074
H68   H     H_    0.385569 0.277662 0.570403 0.200819
C121  C     C_3   0.943271 0.637013 0.275441 -0.332422
C122  C     C_3   0.016373 0.597442 0.249147 -0.950237
H69   H     H_    0.006421 0.566519 0.195038 0.273251
H70   H     H_    0.062526 0.641990 0.241167 0.264970
H71   H     H_    0.034837 0.553777 0.292179 0.258353
H72   H     H_    0.953945 0.665828 0.330095 0.181551
H73   H     H_    0.899028 0.590966 0.286682 0.190328
C123  C     C_3   0.582743 0.094133 0.345938 -0.328322
C124  C     C_3   0.592631 0.078693 0.430069 -0.952268
H74   H     H_    0.631889 0.029715 0.440615 0.259215
H75   H     H_    0.612987 0.132581 0.459169 0.279757
H76   H     H_    0.536941 0.060233 0.453999 0.259914
H77   H     H_    0.534978 0.136506 0.339453 0.191772
H78   H     H_    0.565182 0.038245 0.318389 0.203135
C125  C     C_3   0.176317 0.352523 0.319561 -0.283829
C126  C     C_3   0.152336 0.431982 0.351313 -0.962561
H79   H     H_    0.158738 0.478881 0.307685 0.258742
H80   H     H_    0.091952 0.429470 0.370341 0.264699
H81   H     H_    0.189065 0.447336 0.400181 0.260170
H82   H     H_    0.175871 0.307704 0.364927 0.199081
H83   H     H_    0.236503 0.356992 0.299684 0.187697
C127  C     C_3   0.398291 0.842067 0.396854 -0.319848
C128  C     C_3   0.467494 0.895399 0.408995 -0.943159
H84   H     H_    0.509158 0.888861 0.362270 0.274197
H85   H     H_    0.449289 0.957837 0.411941 0.263522
H86   H     H_    0.495836 0.878983 0.462627 0.259481
H87   H     H_    0.357132 0.852067 0.443466 0.191548
H88   H     H_    0.416130 0.779349 0.400063 0.195189
C129  C     C_3   0.410937 0.878930 0.185718 -0.328428
C130  C     C_3   0.473409 0.940333 0.200090 -0.942681
H89   H     H_    0.455767 0.981051 0.245571 0.263103
H90   H     H_    0.527538 0.911385 0.216623 0.255547
H91   H     H_    0.483617 0.975496 0.147874 0.255496
H92   H     H_    0.426481 0.844854 0.134985 0.187027
H93   H     H_    0.356633 0.909774 0.172825 0.193218
C131  C     C_3   0.074234 0.387192 0.133864 -0.319785
C132  C     C_3   0.091605 0.407363 0.051644 -0.955992
H94   H     H_    0.124035 0.463409 0.047346 0.257599
H95   H     H_    0.124280 0.359140 0.025228 0.274738
H96   H     H_    0.037268 0.414735 0.020245 0.257567
H97   H     H_    0.031648 0.338106 0.134652 0.191612
H98   H     H_    0.047224 0.438812 0.160816 0.196872
C133  C     C_3   0.691927 0.144999 0.168211 -0.294727
C134  C     C_3   0.673404 0.064610 0.134205 -0.937956
H99   H     H_    0.679608 0.017498 0.177411 0.252083
H100  H     H_    0.613838 0.062993 0.113113 0.264480
H101  H     H_    0.712910 0.052643 0.086660 0.259467
H102  H     H_    0.690886 0.190900 0.123708 0.201634
H103  H     H_    0.751318 0.144447 0.190425 0.187899
C135  C     C_3   0.887873 0.684451 0.073873 -0.315751
C136  C     C_3   0.959210 0.642916 0.045876 -0.945095
H104  H     H_    0.009407 0.664417 0.077812 0.263433
H105  H     H_    0.953348 0.577975 0.053004 0.266149
H106  H     H_    0.968366 0.655997 0.985088 0.257631
H107  H     H_    0.839822 0.668519 0.036161 0.201050
H108  H     H_    0.896553 0.749430 0.070368 0.199429
C137  C     C_3   0.449882 0.146482 0.762578 -0.338360
C138  C     C_3   0.530200 0.125979 0.737512 -0.970170
H109  H     H_    0.528287 0.101813 0.679791 0.288788
H110  H     H_    0.567517 0.179214 0.737522 0.261693
H111  H     H_    0.554359 0.081828 0.776620 0.267800
H112  H     H_    0.450968 0.167582 0.821458 0.183449
H113  H     H_    0.414066 0.092023 0.763514 0.195157
C139  C     C_3   0.196145 0.846491 0.991041 -0.349030
C140  C     C_3   0.131456 0.857404 0.047676 -0.905860
H114  H     H_    0.086123 0.894871 0.022987 0.267546
H115  H     H_    0.106686 0.799424 0.064564 0.259958
H116  H     H_    0.153922 0.886879 0.098949 0.250826
H117  H     H_    0.242167 0.813355 0.019748 0.200985
H118  H     H_    0.219043 0.905343 0.974093 0.192518
C141  C     C_3   0.628338 0.849342 0.809686 -0.325705
C142  C     C_3   0.603652 0.934368 0.821408 -0.945396
H119  H     H_    0.632806 0.974102 0.780485 0.259553
H120  H     H_    0.540806 0.939357 0.815109 0.268343
H121  H     H_    0.619720 0.953733 0.879024 0.255646
H122  H     H_    0.602128 0.814399 0.854900 0.199202
H123  H     H_    0.691467 0.845329 0.814890 0.200762
C143  C     C_3   0.913117 0.394498 0.869352 -0.336552
C144  C     C_3   0.956384 0.466367 0.838547 -0.918141
H124  H     H_    0.987721 0.451329 0.786152 0.262044
H125  H     H_    0.916689 0.515248 0.826185 0.265666
H126  H     H_    0.998435 0.486781 0.881173 0.253055
H127  H     H_    0.887247 0.410153 0.924506 0.188318
H128  H     H_    0.954602 0.346359 0.879904 0.195587
C145  C     C_3   0.431286 0.779562 0.904887 -0.406715
C146  C     C_3   0.394134 0.834304 0.961670 -0.943507
H129  H     H_    0.344045 0.863002 0.935966 0.262575
H130  H     H_    0.377367 0.801430 0.013593 0.256633
H131  H     H_    0.435020 0.881758 0.977476 0.259714
H132  H     H_    0.490734 0.772176 0.923425 0.212371
H133  H     H_    0.431669 0.807653 0.848019 0.188738
C147  C     C_3   0.236065 0.425687 0.871681 -0.393750
C148  C     C_3   0.189303 0.349261 0.876606 -0.896497
H134  H     H_    0.192102 0.315150 0.823683 0.270997
H135  H     H_    0.210164 0.311883 0.923923 0.258903
H136  H     H_    0.128450 0.363604 0.886722 0.254073
H137  H     H_    0.224839 0.457058 0.925275 0.189674
H138  H     H_    0.215955 0.463026 0.824248 0.180634
C149  C     C_3   0.572028 0.221731 0.921529 -0.440581
C150  C     C_3   0.608670 0.180183 0.989014 -0.917529
H139  H     H_    0.671110 0.173349 0.984034 0.262753
H140  H     H_    0.600239 0.214858 0.040221 0.262915
H141  H     H_    0.581641 0.121295 0.996563 0.259721
H142  H     H_    0.511993 0.230989 0.935253 0.213018
H143  H     H_    0.571461 0.184085 0.871427 0.200832
C151  C     C_3   0.763502 0.576727 0.871750 -0.389319
C152  C     C_3   0.807709 0.654791 0.874167 -0.928003
H144  H     H_    0.807178 0.685221 0.818667 0.269562
H145  H     H_    0.782678 0.694492 0.917060 0.258931
H146  H     H_    0.868063 0.643292 0.889120 0.258166
H147  H     H_    0.775257 0.545937 0.925939 0.191383
H148  H     H_    0.784813 0.539673 0.825616 0.175503
C153  C     C_3   0.423142 0.221523 0.072279 -0.407797
C154  C     C_3   0.383203 0.184264 0.003601 -0.910764
H149  H     H_    0.321533 0.173413 0.011683 0.257668
H150  H     H_    0.387024 0.223370 0.953916 0.261017
H151  H     H_    0.410955 0.127535 0.989837 0.251769
H152  H     H_    0.482078 0.232733 0.055984 0.209980
H153  H     H_    0.426736 0.180705 0.121215 0.167979
C155  C     C_3   0.236382 0.574052 0.129621 -0.392782
C156  C     C_3   0.189757 0.648379 0.116526 -0.918458
H154  H     H_    0.191933 0.688106 0.165903 0.272031
H155  H     H_    0.210705 0.680295 0.065532 0.263691
H156  H     H_    0.129556 0.631018 0.107255 0.252324
H157  H     H_    0.225783 0.537072 0.079812 0.186373
H158  H     H_    0.216577 0.543091 0.181297 0.185522
C157  C     C_3   0.573961 0.777528 0.073215 -0.412517
C158  C     C_3   0.619071 0.813330 0.007254 -0.928354
H159  H     H_    0.675554 0.837218 0.022929 0.259502
H160  H     H_    0.630000 0.767145 0.965094 0.265311
H161  H     H_    0.585798 0.862009 0.981730 0.261842
H162  H     H_    0.515443 0.766971 0.052157 0.211823
H163  H     H_    0.567914 0.818726 0.120870 0.187976
C159  C     C_3   0.766718 0.424927 0.121891 -0.397474
C160  C     C_3   0.814597 0.350528 0.113802 -0.922357
H164  H     H_    0.813831 0.315026 0.166605 0.265151
H165  H     H_    0.792724 0.313978 0.066539 0.261737
H166  H     H_    0.874717 0.367389 0.101377 0.249043
H167  H     H_    0.775616 0.459260 0.068989 0.186291
H168  H     H_    0.787571 0.460702 0.169866 0.174491
C161  C     C_3   0.926481 0.278797 0.417053 -0.428513
C162  C     C_3   0.891104 0.317322 0.486227 -0.922975
H169  H     H_    0.829186 0.328059 0.482565 0.258939
H170  H     H_    0.897001 0.276630 0.533932 0.262831
H171  H     H_    0.921328 0.373555 0.498253 0.265051
H172  H     H_    0.986588 0.270520 0.430964 0.212808
H173  H     H_    0.926184 0.317229 0.366215 0.175842
C163  C     C_3   0.737061 0.918128 0.373411 -0.400479
C164  C     C_3   0.697863 0.838383 0.386727 -0.893682
H174  H     H_    0.699842 0.801480 0.335360 0.269764
H175  H     H_    0.725541 0.806446 0.434248 0.262351
H176  H     H_    0.637135 0.847760 0.401587 0.247551
H177  H     H_    0.726869 0.952452 0.425088 0.182169
H178  H     H_    0.711295 0.948916 0.324601 0.184321
C165  C     C_3   0.078021 0.720320 0.423736 -0.411088
C166  C     C_3   0.117746 0.684232 0.493231 -0.917949
H179  H     H_    0.180748 0.688089 0.490302 0.250249
H180  H     H_    0.103120 0.715479 0.545216 0.256097
H181  H     H_    0.100161 0.621536 0.499741 0.254918
H182  H     H_    0.016795 0.724910 0.435385 0.203291
H183  H     H_    0.082520 0.680912 0.374531 0.195071
C167  C     C_3   0.265026 0.076438 0.372906 -0.392870
C168  C     C_3   0.312568 0.152500 0.371730 -0.926533
H184  H     H_    0.316762 0.177570 0.313968 0.267226
H185  H     H_    0.286931 0.197171 0.409413 0.255763
H186  H     H_    0.371418 0.139708 0.391213 0.255871
H187  H     H_    0.276384 0.047440 0.428118 0.188322
H188  H     H_    0.283964 0.037130 0.327224 0.172417
C169  C     C_3   0.926021 0.722223 0.571978 -0.401908
C170  C     C_3   0.884916 0.683033 0.505165 -0.917715
H189  H     H_    0.824306 0.669045 0.516425 0.261536
H190  H     H_    0.885633 0.722195 0.455206 0.261742
H191  H     H_    0.914436 0.627535 0.490470 0.253714
H192  H     H_    0.983784 0.735581 0.552933 0.211054
H193  H     H_    0.933537 0.681929 0.620805 0.170666
C171  C     C_3   0.734359 0.076450 0.622766 -0.398343
C172  C     C_3   0.691347 0.153568 0.610974 -0.921500
H194  H     H_    0.692609 0.190036 0.662688 0.267726
H195  H     H_    0.716865 0.187783 0.563358 0.264365
H196  H     H_    0.631009 0.140462 0.596997 0.257042
H197  H     H_    0.724898 0.041316 0.571010 0.191893
H198  H     H_    0.710532 0.042946 0.671227 0.179253
C173  C     C_3   0.072026 0.278561 0.579164 -0.427995
C174  C     C_3   0.111526 0.318096 0.511697 -0.920865
H199  H     H_    0.173761 0.326256 0.518554 0.257874
H200  H     H_    0.104766 0.280190 0.462202 0.263676
H201  H     H_    0.084888 0.376059 0.500277 0.261858
H202  H     H_    0.013338 0.268185 0.561725 0.216872
H203  H     H_    0.068785 0.317217 0.629239 0.174428
C175  C     C_3   0.261081 0.939297 0.636340 -0.407353
C176  C     C_3   0.320639 0.874745 0.644996 -0.913714
H204  H     H_    0.307485 0.824399 0.607287 0.261730
H205  H     H_    0.377558 0.898728 0.628903 0.254729
H206  H     H_    0.324686 0.855077 0.704665 0.271497
H207  H     H_    0.273701 0.966513 0.580612 0.189145
H208  H     H_    0.268551 0.983142 0.682088 0.188592

loop_
_geom_bond_atom_site_label_1
_geom_bond_atom_site_label_2
_geom_bond_distance
_ccdc_geom_bond_type
C168  H186  1.110587 S    
C4    N4    1.328952 A    
C20   C119  1.537861 S    
C131  H97   1.113641 S    
C5    N5    1.320416 A    
N21   Ni1   1.894040 S    
C120  H64   1.109780 S    
C118  H61   1.110177 S    
C45   C64   1.397885 A    
C21   H21   1.114005 S    
C120  H66   1.110297 S    
C145  H132  1.100589 S    
N16   Ni8   1.860231 S    
C159  H168  1.108042 S    
C173  H203  1.108154 S    
C105  H41   1.063444 S    
C20   C29   1.516100 S    
C167  H188  1.104346 S    
N5    N22   1.380440 A    
N6    Ni2   1.872891 S    
C163  H178  1.105709 S    
C133  C134  1.527228 S    
C45   C169  1.502203 S    
C126  H79   1.110189 S    
C121  H72   1.102738 S    
C164  H176  1.108980 S    
C161  H172  1.092069 S    
C151  H147  1.109779 S    
C27   C70   1.488348 S    
C48   C175  1.512342 S    
C134  H99   1.108797 S    
C24   H24   1.108004 S    
C113  H52   1.097437 S    
N3    Ni3   1.893797 S    
N4    N17   1.380394 A    
C37   C153  1.500742 S    
C30   C67   1.502944 S    
C72   C88   1.394078 A    
C32   C143  1.543352 S    
C108  H44   1.081396 S    
C66   C82   1.400651 A    
C34   N18   1.330896 A    
C139  H117  1.108892 S    
C171  H198  1.105628 S    
C70   C86   1.388129 A    
C117  H63   1.112613 S    
C3    C51   1.378971 A    
C48   C63   1.390672 A    
C17   C113  1.540985 S    
C157  H163  1.104947 S    
C94   C102  1.394478 A    
C114  H49   1.110550 S    
C9    H9    1.072901 S    
C36   N20   1.334664 A    
C43   N27   1.355144 A    
C176  H206  1.108445 S    
C152  H145  1.110859 S    
C154  H149  1.103791 S    
C107  H43   1.084439 S    
C34   C147  1.510744 S    
C146  H129  1.104482 S    
C28   H28   1.112576 S    
C158  H161  1.109047 S    
C57   C92   1.435960 S    
C117  C118  1.525107 S    
C121  C122  1.525028 S    
C28   C69   1.498244 S    
C106  H42   1.078450 S    
C157  C158  1.529130 S    
C22   H22   1.106466 S    
C11   H11   1.074210 S    
N2    N19   1.380393 A    
C62   C93   1.464596 S    
N20   Ni2   1.860462 S    
C122  H70   1.110623 S    
C114  H50   1.110657 S    
C169  H192  1.088164 S    
C68   C84   1.396013 A    
C39   N23   1.342633 A    
C69   C85   1.396991 A    
C61   C96   1.456364 S    
C165  C166  1.540467 S    
C142  H119  1.107848 S    
C12   C60   1.367667 A    
C138  H111  1.104050 S    
C129  H93   1.113028 S    
C13   C61   1.379159 A    
C165  H183  1.105006 S    
C72   C73   1.371688 A    
C154  H151  1.110341 S    
C166  H180  1.096561 S    
C66   C79   1.378727 A    
C140  H116  1.110533 S    
C67   C78   1.386424 A    
C9    N9    1.325051 A    
C126  H81   1.110271 S    
C60   C91   1.484522 S    
C12   N12   1.325461 A    
C117  H62   1.109966 S    
C138  H110  1.110680 S    
C84   C108  1.394232 A    
C73   C89   1.395745 A    
C119  H67   1.107369 S    
C134  H101  1.110199 S    
C79   C95   1.406823 A    
C25   C129  1.542990 S    
C155  C156  1.524851 S    
C63   C94   1.415139 S    
N11   N28   1.391942 A    
C136  H105  1.112018 S    
C111  H47   1.064874 S    
C175  H207  1.107954 S    
C4    H4    1.074731 S    
C133  H103  1.113220 S    
C5    H5    1.072291 S    
C125  H82   1.102358 S    
C7    N7    1.328675 A    
C8    N8    1.332813 A    
C172  H194  1.108796 S    
C23   H23   1.112648 S    
C51   C82   1.462954 S    
C18   C115  1.540164 S    
C13   N13   1.335777 A    
C115  H57   1.111322 S    
C49   C84   1.437745 S    
C176  H204  1.110625 S    
C22   C123  1.548949 S    
C109  H45   1.065488 S    
C116  H56   1.109180 S    
C162  H169  1.103696 S    
C153  H153  1.107798 S    
C53   C88   1.425833 S    
C155  H158  1.106091 S    
N7    N24   1.380440 A    
N12   N25   1.380394 A    
C24   C25   1.522666 S    
N6    N23   1.391893 A    
C174  H199  1.105206 S    
C118  H60   1.110725 S    
C159  C160  1.528893 S    
C78   C94   1.395951 A    
C123  C124  1.521266 S    
C4    C52   1.358738 A    
N31   Ni7   1.896676 S    
C129  C130  1.527746 S    
C25   H25   1.113355 S    
C24   C73   1.499771 S    
C165  H182  1.095874 S    
N8    N21   1.391893 A    
C42   C57   1.402961 A    
C18   C79   1.499361 S    
C8    C56   1.370499 A    
C19   C78   1.504900 S    
C29   H29   1.114515 S    
C131  C132  1.523145 S    
N7    Ni1   1.896460 S    
C6    N6    1.323233 A    
C67   C83   1.395019 A    
C141  H122  1.091584 S    
C142  H121  1.109936 S    
C89   C97   1.408054 A    
C17   C32   1.527255 S    
C38   C155  1.500865 S    
C124  H74   1.098371 S    
C18   C31   1.531503 S    
C19   C30   1.528886 S    
C26   C71   1.519748 S    
C40   N24   1.333429 A    
C21   C28   1.522727 S    
C47   C173  1.498715 S    
C22   C27   1.526180 S    
C127  H88   1.112635 S    
C133  H102  1.104445 S    
C81   C105  1.421097 A    
C35   C149  1.496747 S    
C76   C92   1.399243 A    
C77   C93   1.393845 A    
C171  C172  1.528618 S    
C172  H196  1.107392 S    
C151  C152  1.529691 S    
C141  H123  1.112876 S    
C128  H86   1.107323 S    
C59   C90   1.452618 S    
C21   C76   1.506802 S    
C30   C139  1.537591 S    
C152  H144  1.107126 S    
C123  H77   1.113459 S    
C97   C112  1.382499 A    
C140  H114  1.109899 S    
C86   C110  1.391383 A    
C3    N3    1.340561 A    
C160  H164  1.108823 S    
C148  H136  1.110401 S    
C158  H160  1.103659 S    
C116  H54   1.110127 S    
C19   H19   1.113264 S    
C3    H3    1.073271 S    
C132  H95   1.108312 S    
C148  H134  1.106037 S    
C156  H156  1.105757 S    
C147  H138  1.108273 S    
C135  H107  1.108279 S    
C160  H166  1.110775 S    
C170  H190  1.102764 S    
C92   C100  1.393157 A    
N17   Ni3   1.896711 S    
N3    N20   1.391942 A    
N4    Ni4   1.860503 S    
C26   H26   1.104148 S    
C95   C103  1.418692 A    
C54   C85   1.459844 S    
C168  H185  1.110527 S    
C131  H98   1.109429 S    
C25   C72   1.504665 S    
C26   C131  1.547980 S    
C173  H202  1.087521 S    
C70   C75   1.376807 A    
C30   H30   1.114316 S    
C174  H201  1.109515 S    
C150  H139  1.104792 S    
C120  H65   1.107976 S    
C29   C68   1.496377 S    
C15   H15   1.078664 S    
C64   C95   1.490676 S    
C16   H16   1.069755 S    
C137  H113  1.112671 S    
N1    Ni1   1.896428 S    
C143  H127  1.111018 S    
C144  H126  1.110631 S    
C130  H89   1.109917 S    
C75   C91   1.418971 A    
C169  C170  1.538098 S    
C2    N2    1.333059 A    
C7    H7    1.076995 S    
C8    H8    1.067518 S    
C126  H80   1.110540 S    
C39   C157  1.504532 S    
C35   C50   1.398633 A    
C1    C49   1.377398 A    
C50   C81   1.488766 S    
C164  H175  1.111854 S    
C151  H148  1.100984 S    
C134  H100  1.109312 S    
C52   C83   1.419070 S    
C5    C53   1.365747 A    
C135  C136  1.524144 S    
C37   C56   1.401659 A    
C35   N19   1.353274 A    
C7    C55   1.378082 A    
C68   C77   1.384459 A    
C39   C54   1.391540 A    
C56   C87   1.492129 S    
N11   Ni7   1.893797 S    
C16   C64   1.381867 A    
C71   C74   1.378794 A    
C125  H83   1.113331 S    
C10   N10   1.320510 A    
C40   C159  1.509507 S    
C139  H118  1.112217 S    
N29   Ni5   1.894040 S    
C128  H84   1.109544 S    
C14   N14   1.333209 A    
C36   C51   1.401834 A    
C74   C90   1.390599 A    
C156  H154  1.108121 S    
C23   C125  1.542792 S    
C12   H12   1.068030 S    
C13   H13   1.074803 S    
C176  H205  1.110270 S    
C161  C162  1.525670 S    
C40   C55   1.395756 A    
C154  H150  1.099982 S    
N12   Ni8   1.860503 S    
C146  H130  1.110153 S    
C125  C126  1.526166 S    
C6    H6    1.067922 S    
C46   C61   1.400465 A    
N14   Ni6   1.872891 S    
C96   C104  1.394349 A    
C142  H120  1.111006 S    
C115  C116  1.520825 S    
C114  H51   1.110228 S    
C24   C127  1.541012 S    
C136  H104  1.107017 S    
C65   C80   1.379005 A    
C91   C99   1.419447 A    
N10   N27   1.380393 A    
C159  H167  1.109912 S    
N13   Ni7   1.894224 S    
C146  H131  1.110811 S    
C28   C135  1.538986 S    
N14   N31   1.391895 A    
C32   H32   1.105883 S    
C85   C109  1.405889 A    
C150  H141  1.109307 S    
C80   C96   1.395477 A    
C83   C107  1.398524 A    
C145  H133  1.111178 S    
C103  C106  1.395179 A    
C32   C65   1.510773 S    
C2    C50   1.376905 A    
N9    N26   1.391941 A    
C144  H124  1.109847 S    
C6    C54   1.378095 A    
C167  H187  1.110475 S    
C163  H177  1.103158 S    
N10   Ni6   1.873085 S    
C23   C74   1.488892 S    
C101  C108  1.382191 A    
C127  C128  1.523411 S    
C46   N30   1.334888 A    
C47   C62   1.381587 A    
C129  H92   1.106590 S    
C121  H73   1.112896 S    
N23   Ni3   1.896676 S    
C141  C142  1.524908 S    
C10   C58   1.364534 A    
C137  C138  1.519145 S    
C90   C98   1.395013 A    
C119  H68   1.112730 S    
C98   H34   1.080347 S    
C113  H53   1.113271 S    
C147  H137  1.109425 S    
C55   C86   1.441196 S    
C42   N26   1.330520 A    
C43   C165  1.500222 S    
C102  H38   1.084297 S    
C175  H208  1.110661 S    
C33   C145  1.508682 S    
C82   C106  1.398056 A    
C171  H197  1.108571 S    
C149  H143  1.096712 S    
C19   C117  1.541821 S    
C115  H58   1.112805 S    
C17   C80   1.491493 S    
N13   N30   1.380440 A    
C1    H1    1.071798 S    
N19   Ni1   1.894479 S    
C152  H146  1.109188 S    
C162  H170  1.092891 S    
C153  H152  1.086929 S    
C71   C87   1.417390 A    
C167  C168  1.530222 S    
N5    Ni3   1.894224 S    
C174  H200  1.096563 S    
C149  C150  1.528196 S    
C145  C146  1.522688 S    
C149  H142  1.092366 S    
C46   C171  1.505136 S    
C122  H69   1.108816 S    
C41   C161  1.500110 S    
C162  H171  1.109393 S    
C128  H85   1.110381 S    
C169  H193  1.107262 S    
C23   C26   1.526445 S    
C173  C174  1.528309 S    
N25   Ni7   1.896711 S    
N27   Ni5   1.894479 S    
C21   C121  1.543623 S    
C98   C111  1.394017 A    
C2    H2    1.072629 S    
C113  C114  1.526414 S    
C99   C110  1.388543 A    
C110  H46   1.080613 S    
C15   N15   1.330565 A    
C166  H179  1.106615 S    
C16   N16   1.334272 A    
C1    N1    1.328904 A    
C168  H184  1.107212 S    
C43   C58   1.390579 A    
C31   H31   1.112955 S    
C153  C154  1.540713 S    
C48   N32   1.334635 A    
C41   C60   1.405027 A    
C17   H17   1.111873 S    
C139  C140  1.525885 S    
C172  H195  1.111757 S    
C103  H39   1.065267 S    
C138  H109  1.104325 S    
C104  H40   1.079659 S    
C15   C63   1.373742 A    
C93   C101  1.408669 A    
N15   N32   1.380442 A    
C36   C151  1.506487 S    
C31   C141  1.537893 S    
C122  H71   1.109555 S    
N1    N18   1.391941 A    
C136  H106  1.108812 S    
C123  H78   1.110672 S    
C69   C76   1.378387 A    
C161  H173  1.108025 S    
C44   C167  1.508392 S    
C148  H135  1.111425 S    
C11   N11   1.334745 A    
C29   C137  1.538471 S    
C132  H94   1.105827 S    
C34   C49   1.396698 A    
C20   H20   1.113093 S    
C38   N22   1.333152 A    
C10   H10   1.069731 S    
C157  H162  1.105275 S    
C156  H155  1.110229 S    
C135  H108  1.112922 S    
C38   C53   1.395989 A    
C160  H165  1.111693 S    
C170  H191  1.110393 S    
C14   H14   1.069039 S    
C100  C109  1.380749 A    
C44   N28   1.337423 A    
C155  H157  1.100949 S    
C143  C144  1.527678 S    
C33   C52   1.377664 A    
C65   C81   1.410283 A    
N28   Ni6   1.860462 S    
C44   C59   1.396639 A    
C118  H59   1.108057 S    
C150  H140  1.094762 S    
N30   Ni8   1.873326 S    
C14   C62   1.376190 A    
C112  H48   1.082848 S    
C137  H112  1.104825 S    
C143  H128  1.112938 S    
C144  H125  1.107748 S    
C130  H90   1.110505 S    
C20   C77   1.498462 S    
N18   Ni4   1.873128 S    
C27   C133  1.541581 S    
C18   H18   1.107264 S    
C164  H174  1.108416 S    
N24   Ni2   1.860746 S    
C58   C89   1.458441 S    
C104  C105  1.392620 A    
C124  H75   1.109106 S    
C31   C66   1.500732 S    
C124  H76   1.105535 S    
C130  H91   1.110485 S    
C41   N25   1.357603 A    
C166  H181  1.110172 S    
C27   H27   1.112775 S    
C37   N21   1.359611 A    
C163  C164  1.528962 S    
C175  C176  1.526251 S    
C127  H87   1.110306 S    
N26   Ni8   1.873128 S    
C11   C59   1.379571 A    
C9    C57   1.369638 A    
N2    Ni2   1.873085 S    
C99   H35   1.062808 S    
N9    Ni5   1.896428 S    
C147  C148  1.530044 S    
C97   H33   1.066930 S    
C140  H115  1.110897 S    
C47   N31   1.347867 A    
N32   Ni6   1.860746 S    
N8    Ni4   1.860231 S    
C33   N17   1.345752 A    
C100  H36   1.080866 S    
C101  H37   1.066131 S    
C158  H159  1.103030 S    
C116  H55   1.105715 S    
N16   N29   1.391893 A    
C119  C120  1.521546 S    
C132  H96   1.110837 S    
N22   Ni4   1.873326 S    
N15   Ni5   1.896460 S    
C45   N29   1.353087 A    
C170  H189  1.104048 S    
C87   C111  1.421338 A    
C102  C107  1.374689 A    
C88   C112  1.394774 A    
C22   C75   1.522524 S    
C42   C163  1.502944 S    
