data_str_m2_o40_o41_f0_fof.sym.81
_audit_creation_date              2013-03-05T15:40:56-0500
_audit_creation_method            fapswitch 2.2
_symmetry_space_group_name_H-M    P1
_symmetry_Int_Tables_number       1
_space_group_crystal_system       triclinic
_cell_length_a                    28.007383
_cell_length_b                    18.715307
_cell_length_c                    16.827623
_cell_angle_alpha                 90.092907
_cell_angle_beta                  62.787093
_cell_angle_gamma                 90.263227
_cell_volume                      7844.08768839

loop_
_atom_site_label
_atom_site_type_symbol
_atom_site_description
_atom_site_fract_x
_atom_site_fract_y
_atom_site_fract_z
_atom_type_partial_charge
O1    O     O_R   0.255040 0.869590 0.478480 -0.577661
O2    O     O_R   0.744960 0.130410 0.521520 -0.570232
O3    O     O_R   0.744960 0.869590 0.521520 -0.581534
O4    O     O_R   0.255040 0.130410 0.478480 -0.569018
O5    O     O_R   0.755040 0.369590 0.478480 -0.578322
O6    O     O_R   0.244960 0.630410 0.521520 -0.568908
O7    O     O_R   0.244960 0.369590 0.521520 -0.581160
O8    O     O_R   0.755040 0.630410 0.478480 -0.569180
O9    O     O_R   0.182050 0.796550 0.624440 -0.589224
O10   O     O_R   0.817950 0.203450 0.375560 -0.584687
O11   O     O_R   0.817950 0.796550 0.375560 -0.591619
O12   O     O_R   0.182050 0.203450 0.624440 -0.576245
O13   O     O_R   0.682050 0.296550 0.624440 -0.588849
O14   O     O_R   0.317950 0.703450 0.375560 -0.584905
O15   O     O_R   0.317950 0.296550 0.375560 -0.591314
O16   O     O_R   0.682050 0.703450 0.624440 -0.574335
Cu1   Cu    Cu3+1 0.209920 0.785290 0.495070 0.984090
Cu2   Cu    Cu3+1 0.790080 0.214710 0.504930 0.996594
Cu3   Cu    Cu3+1 0.790080 0.785290 0.504930 0.977158
Cu4   Cu    Cu3+1 0.209920 0.214710 0.495070 1.001191
Cu5   Cu    Cu3+1 0.709920 0.285290 0.495070 0.985954
Cu6   Cu    Cu3+1 0.290080 0.714710 0.504930 1.001959
Cu7   Cu    Cu3+1 0.290080 0.285290 0.504930 0.978276
Cu8   Cu    Cu3+1 0.709920 0.714710 0.495070 1.004840
C1    C     C_R   0.296157 0.731268 0.328570 0.792607
C2    C     C_R   0.708395 0.278178 0.668196 0.802753
C3    C     C_R   0.703832 0.731270 0.671277 0.815241
C4    C     C_R   0.292617 0.276141 0.330657 0.791498
C5    C     C_R   0.796176 0.231284 0.328313 0.792261
C6    C     C_R   0.208014 0.777462 0.668643 0.802936
C7    C     C_R   0.203807 0.231320 0.671284 0.815033
C8    C     C_R   0.792643 0.776089 0.330636 0.790778
O17   O     O_R   0.250530 0.763330 0.367210 -0.582062
O18   O     O_R   0.749470 0.236670 0.632790 -0.578854
O19   O     O_R   0.749470 0.763330 0.632790 -0.583662
O20   O     O_R   0.250530 0.236670 0.367210 -0.591306
O21   O     O_R   0.750530 0.263330 0.367210 -0.583144
O22   O     O_R   0.249470 0.736670 0.632790 -0.579854
O23   O     O_R   0.249470 0.263330 0.632790 -0.583257
O24   O     O_R   0.750530 0.736670 0.367210 -0.591863
O25   O     O_R   0.177260 0.690030 0.513710 -0.592771
O26   O     O_R   0.822740 0.309970 0.486290 -0.595465
O27   O     O_R   0.822740 0.690030 0.486290 -0.600576
O28   O     O_R   0.177260 0.309970 0.513710 -0.598312
O29   O     O_R   0.677260 0.190030 0.513710 -0.591680
O30   O     O_R   0.322740 0.809970 0.486290 -0.595963
O31   O     O_R   0.322740 0.190030 0.486290 -0.600471
O32   O     O_R   0.677260 0.809970 0.513710 -0.597545
C9    C     C_R   0.196898 0.631522 0.526181 0.812540
C10   C     C_R   0.803659 0.368235 0.471505 0.779302
C11   C     C_R   0.803009 0.631660 0.473846 0.819163
C12   C     C_R   0.200376 0.368943 0.514628 0.796063
C13   C     C_R   0.696908 0.131515 0.526116 0.813680
C14   C     C_R   0.303678 0.868228 0.471433 0.779954
C15   C     C_R   0.303030 0.131666 0.473754 0.819478
C16   C     C_R   0.700390 0.868942 0.514559 0.796290
H1    H     H_    0.573848 0.764629 0.404792 0.201828
H2    H     H_    0.456057 0.243476 0.502756 0.153244
H3    H     H_    0.490149 0.762893 0.392082 0.168735
H4    H     H_    0.527042 0.240004 0.549399 0.150025
H5    H     H_    0.073574 0.264578 0.405696 0.200443
H6    H     H_    0.955759 0.743404 0.503925 0.152516
H7    H     H_    0.989879 0.262848 0.392999 0.165522
H8    H     H_    0.026786 0.739924 0.550466 0.148768
C17   C     C_R   0.040332 0.626100 0.528479 0.093803
C18   C     C_R   0.971052 0.373854 0.430358 0.087965
C19   C     C_R   0.956237 0.629161 0.481950 0.085413
C20   C     C_R   0.067087 0.375340 0.445902 0.068518
C21   C     C_R   0.540578 0.126171 0.527481 0.092796
C22   C     C_R   0.471305 0.873898 0.429437 0.078601
C23   C     C_R   0.456524 0.129228 0.480840 0.084704
C24   C     C_R   0.567351 0.875385 0.445040 0.066761
C25   C     C_R   0.014447 0.690661 0.531123 -0.182339
C26   C     C_R   0.002407 0.311998 0.412240 -0.105010
C27   C     C_R   0.974147 0.692665 0.504295 -0.183197
C28   C     C_R   0.050299 0.313011 0.419123 -0.117438
C29   C     C_R   0.514723 0.190740 0.530025 -0.180943
C30   C     C_R   0.502683 0.812053 0.411290 -0.111706
C31   C     C_R   0.474448 0.192741 0.503136 -0.182141
C32   C     C_R   0.550579 0.813069 0.418193 -0.116315
C33   C     C_R   0.979860 0.564083 0.483722 0.035777
C34   C     C_R   0.035880 0.437111 0.465007 0.044201
C35   C     C_R   0.024276 0.563176 0.501605 0.032517
C36   C     C_R   0.988580 0.436882 0.454627 0.039967
C37   C     C_R   0.480165 0.064156 0.482606 0.034580
C38   C     C_R   0.536172 0.937179 0.464005 0.039770
C39   C     C_R   0.524565 0.063253 0.500538 0.031474
C40   C     C_R   0.488875 0.936949 0.453587 0.034864
C41   C     C_R   0.460577 0.000532 0.463371 -0.038635
C42   C     C_R   0.553070 0.999788 0.490684 -0.036790
C43   C     C_R   0.960294 0.500472 0.464403 -0.037695
C44   C     C_R   0.052806 0.499723 0.491635 -0.035180
C45   C     C_R   0.390056 0.935381 0.444885 0.047969
C46   C     C_R   0.616291 0.063360 0.530041 0.050179
C47   C     C_R   0.629623 0.936342 0.489293 0.050267
C48   C     C_R   0.387362 0.066452 0.456393 0.048323
C49   C     C_R   0.889913 0.435379 0.445469 0.048984
C50   C     C_R   0.116173 0.563333 0.530602 0.050048
C51   C     C_R   0.129487 0.436338 0.489781 0.050904
C52   C     C_R   0.887200 0.566433 0.457088 0.048948
C53   C     C_R   0.336492 0.934879 0.454786 -0.109103
C54   C     C_R   0.666537 0.064407 0.532844 -0.115590
C55   C     C_R   0.673453 0.935560 0.510828 -0.106069
C56   C     C_R   0.335480 0.065821 0.459184 -0.112593
C57   C     C_R   0.836430 0.434890 0.455044 -0.108555
C58   C     C_R   0.166507 0.564406 0.533081 -0.115639
C59   C     C_R   0.173413 0.435566 0.511042 -0.106204
C60   C     C_R   0.835415 0.565816 0.459494 -0.112202
C61   C     C_R   0.311125 0.000197 0.459302 -0.261348
C62   C     C_R   0.692094 0.999784 0.529059 -0.264981
C63   C     C_R   0.811096 0.500205 0.459436 -0.262335
C64   C     C_R   0.192108 0.499792 0.529157 -0.264912
H9    H     H_    0.270618 0.999912 0.466701 0.198041
H10   H     H_    0.728149 0.999776 0.537644 0.196952
H11   H     H_    0.770647 0.499924 0.466571 0.197955
H12   H     H_    0.228238 0.499791 0.537520 0.197463
C65   C     C_R   0.412446 0.000723 0.455000 0.070230
C66   C     C_R   0.599470 0.999643 0.504183 0.071813
C67   C     C_R   0.912238 0.500696 0.455809 0.070252
C68   C     C_R   0.099289 0.499608 0.504876 0.072365
C69   C     C_R   0.615052 0.876756 0.452325 -0.215763
C70   C     C_R   0.415337 0.130048 0.456630 -0.229515
C71   C     C_R   0.422655 0.873526 0.424348 -0.209595
C72   C     C_R   0.583091 0.124238 0.548979 -0.224127
C73   C     C_R   0.114869 0.376765 0.452882 -0.217391
C74   C     C_R   0.915133 0.630015 0.457555 -0.230258
C75   C     C_R   0.922499 0.373528 0.425003 -0.202848
C76   C     C_R   0.082951 0.624194 0.549715 -0.223666
H13   H     H_    0.640862 0.831441 0.424885 0.165956
H14   H     H_    0.407959 0.181382 0.436281 0.182598
H15   H     H_    0.412143 0.825184 0.400883 0.171990
H16   H     H_    0.588912 0.170799 0.581427 0.171277
H17   H     H_    0.140714 0.331521 0.425192 0.165770
H18   H     H_    0.907852 0.681370 0.437134 0.182307
H19   H     H_    0.912093 0.325239 0.401284 0.170048
H20   H     H_    0.088873 0.670775 0.582024 0.171118
C77   C     C_R   0.230454 0.790471 0.945883 -0.015640
C78   C     C_R   0.794443 0.263684 0.033775 -0.013374
C79   C     C_R   0.777457 0.773071 0.046349 -0.017334
C80   C     C_R   0.221977 0.233935 0.949884 -0.017243
C81   C     C_R   0.735041 0.298311 0.940988 -0.014073
C82   C     C_R   0.286498 0.749810 0.041130 -0.016596
C83   C     C_R   0.277014 0.273940 0.046709 -0.017766
C84   C     C_R   0.722437 0.733119 0.949477 -0.016183
C85   C     C_R   0.281248 0.758237 0.900676 -0.066498
C86   C     C_R   0.746249 0.302806 0.077055 -0.066514
C87   C     C_R   0.728860 0.734614 0.088354 -0.066655
C88   C     C_R   0.263964 0.284751 0.913586 -0.072795
C89   C     C_R   0.789355 0.276874 0.892257 -0.058289
C90   C     C_R   0.243183 0.797914 0.080142 -0.069998
C91   C     C_R   0.228425 0.235487 0.088754 -0.066535
C92   C     C_R   0.764502 0.783827 0.913145 -0.072786
C93   C     C_R   0.303246 0.726483 0.952675 0.090789
C94   C     C_R   0.713040 0.309807 0.034063 0.092813
C95   C     C_R   0.708254 0.703504 0.034182 0.078848
C96   C     C_R   0.297204 0.293531 0.956117 0.095849
C97   C     C_R   0.816347 0.250622 0.940859 0.088596
C98   C     C_R   0.209907 0.807075 0.037572 0.096224
C99   C     C_R   0.207807 0.204358 0.034611 0.079193
C100  C     C_R   0.797723 0.792566 0.955717 0.094933
C101  C     C_R   0.146739 0.830051 0.946953 0.075632
C102  C     C_R   0.865716 0.192118 0.043401 0.073854
C103  C     C_R   0.857685 0.822138 0.049808 0.077519
C104  C     C_R   0.156517 0.155461 0.934452 0.062872
C105  C     C_R   0.648683 0.331437 0.944977 0.076001
C106  C     C_R   0.349849 0.667161 0.056415 0.069026
C107  C     C_R   0.357397 0.322642 0.049959 0.076355
C108  C     C_R   0.656741 0.655001 0.934212 0.062568
C109  C     C_R   0.118572 0.850832 0.898068 -0.116296
C110  C     C_R   0.886420 0.157821 0.097819 -0.117876
C111  C     C_R   0.883300 0.847791 0.100760 -0.120615
C112  C     C_R   0.124529 0.139481 0.890906 -0.115533
C113  C     C_R   0.619400 0.351308 0.897428 -0.117954
C114  C     C_R   0.377731 0.644125 0.105177 -0.118841
C115  C     C_R   0.383170 0.347986 0.100810 -0.117792
C116  C     C_R   0.624629 0.639285 0.890814 -0.119927
C117  C     C_R   0.139270 0.831488 0.808212 -0.270200
C118  C     C_R   0.863653 0.174551 0.189002 -0.259712
C119  C     C_R   0.861392 0.830503 0.191415 -0.272126
C120  C     C_R   0.138603 0.169316 0.807041 -0.259184
C121  C     C_R   0.639568 0.331379 0.807996 -0.268025
C122  C     C_R   0.361044 0.669714 0.191931 -0.261155
C123  C     C_R   0.361337 0.330573 0.191419 -0.272817
C124  C     C_R   0.638651 0.669240 0.807029 -0.253256
H21   H     H_    0.116250 0.842867 0.772642 0.188111
H22   H     H_    0.878210 0.147558 0.230528 0.191116
H23   H     H_    0.882414 0.846505 0.228970 0.190099
H24   H     H_    0.117488 0.152489 0.769949 0.193358
H25   H     H_    0.615642 0.340800 0.773505 0.187304
H26   H     H_    0.379389 0.648546 0.231289 0.192445
H27   H     H_    0.382467 0.346358 0.228878 0.190732
H28   H     H_    0.617433 0.652604 0.770031 0.195780
C125  C     C_R   0.189976 0.800458 0.762381 -0.092343
C126  C     C_R   0.821249 0.222975 0.228981 -0.096019
C127  C     C_R   0.811849 0.795769 0.235600 -0.089856
C128  C     C_R   0.180983 0.218087 0.768386 -0.099957
C129  C     C_R   0.690908 0.302392 0.761204 -0.091630
C130  C     C_R   0.319783 0.719745 0.230475 -0.095538
C131  C     C_R   0.311748 0.295964 0.235678 -0.090498
C132  C     C_R   0.681094 0.717910 0.768338 -0.100581
C133  C     C_R   0.222666 0.793071 0.806647 -0.004492
C134  C     C_R   0.800465 0.256738 0.174997 -0.001387
C135  C     C_R   0.781689 0.780913 0.188164 0.004688
C136  C     C_R   0.205296 0.245472 0.820232 -0.001886
C137  C     C_R   0.725017 0.299230 0.803369 -0.005367
C138  C     C_R   0.298130 0.751451 0.176864 -0.000206
C139  C     C_R   0.281466 0.281383 0.188377 0.004294
C140  C     C_R   0.705569 0.745033 0.820062 -0.001564
C141  C     C_R   0.199835 0.804452 0.899783 0.070854
C142  C     C_R   0.820230 0.237207 0.084170 0.074987
C143  C     C_R   0.805860 0.791628 0.094822 0.070002
C144  C     C_R   0.194313 0.211963 0.901644 0.075629
C145  C     C_R   0.702813 0.309302 0.896493 0.070837
C146  C     C_R   0.312004 0.723296 0.091225 0.074511
C147  C     C_R   0.305533 0.292273 0.095067 0.069261
C148  C     C_R   0.694648 0.711372 0.901355 0.076764
C149  C     C_R   0.124121 0.833662 0.041176 -0.189448
C150  C     C_R   0.888486 0.183883 0.949620 -0.184719
C151  C     C_R   0.881543 0.825893 0.955443 -0.178823
C152  C     C_R   0.153537 0.116117 0.008147 -0.169084
C153  C     C_R   0.626049 0.332390 0.038937 -0.186426
C154  C     C_R   0.356644 0.635356 0.975419 -0.169653
C155  C     C_R   0.381139 0.326541 0.955603 -0.184539
C156  C     C_R   0.653763 0.615535 0.007826 -0.168382
C157  C     C_R   0.155521 0.825144 0.085089 -0.127179
C158  C     C_R   0.863364 0.209684 0.900700 -0.110393
C159  C     C_R   0.851383 0.814689 0.909800 -0.118850
C160  C     C_R   0.176841 0.141869 0.059546 -0.084621
C161  C     C_R   0.657595 0.322507 0.082350 -0.125170
C162  C     C_R   0.336325 0.666644 0.922653 -0.102488
C163  C     C_R   0.350866 0.315606 0.910107 -0.122487
C164  C     C_R   0.677184 0.641102 0.059143 -0.084966
C165  C     C_R   0.278091 0.777798 0.760851 -0.228523
C166  C     C_R   0.762221 0.312177 0.206888 -0.232569
C167  C     C_R   0.727497 0.757986 0.230412 -0.236768
C168  C     C_R   0.239752 0.305578 0.794158 -0.225631
C169  C     C_R   0.781143 0.291625 0.754949 -0.225662
C170  C     C_R   0.263673 0.811201 0.205045 -0.230128
C171  C     C_R   0.227259 0.258529 0.230733 -0.237255
C172  C     C_R   0.740135 0.805023 0.793975 -0.224099
C173  C     C_R   0.307163 0.758217 0.806225 0.306870
C174  C     C_R   0.734068 0.334064 0.160733 0.301903
C175  C     C_R   0.702224 0.730981 0.182269 0.325800
C176  C     C_R   0.270029 0.324596 0.838076 0.308117
C177  C     C_R   0.813567 0.282389 0.797566 0.310229
C178  C     C_R   0.235054 0.833472 0.159605 0.306148
C179  C     C_R   0.201882 0.231715 0.182662 0.326862
C180  C     C_R   0.770578 0.823743 0.837686 0.306886
H29   H     H_    0.081642 0.840339 0.083209 0.173474
H30   H     H_    0.926785 0.159417 0.910209 0.186738
H31   H     H_    0.923831 0.835923 0.914869 0.168560
H32   H     H_    0.134904 0.064189 0.026340 0.188758
H33   H     H_    0.583381 0.337670 0.080744 0.172187
H34   H     H_    0.374882 0.584191 0.951993 0.194489
H35   H     H_    0.423434 0.336404 0.914885 0.170739
H36   H     H_    0.634997 0.563685 0.026052 0.188215
H37   H     H_    0.136057 0.828805 0.157249 0.170570
H38   H     H_    0.880806 0.194603 0.831184 0.188812
H39   H     H_    0.871106 0.820142 0.837796 0.167139
H40   H     H_    0.172367 0.110916 0.116858 0.203930
H41   H     H_    0.637635 0.322364 0.154632 0.171866
H42   H     H_    0.343567 0.640461 0.860732 0.185502
H43   H     H_    0.370523 0.321138 0.838112 0.167860
H44   H     H_    0.672670 0.610118 0.116456 0.203975
H45   H     H_    0.300684 0.784815 0.689593 0.207600
H46   H     H_    0.755767 0.342859 0.265118 0.208501
H47   H     H_    0.701950 0.764282 0.300714 0.184357
H48   H     H_    0.241475 0.341104 0.742407 0.203625
H49   H     H_    0.801230 0.299029 0.683403 0.204259
H50   H     H_    0.260395 0.843852 0.260201 0.203893
H51   H     H_    0.201803 0.264672 0.301086 0.184186
H52   H     H_    0.741823 0.840724 0.742403 0.203571
O33   O     O_R   0.051640 0.926880 0.885090 -0.587284
O34   O     O_R   0.948360 0.073120 0.114910 -0.571113
O35   O     O_R   0.948360 0.926880 0.114910 -0.585063
O36   O     O_R   0.051640 0.073120 0.885090 -0.585892
O37   O     O_R   0.551640 0.426880 0.885090 -0.586154
O38   O     O_R   0.448360 0.573120 0.114910 -0.572442
O39   O     O_R   0.448360 0.426880 0.114910 -0.586296
O40   O     O_R   0.551640 0.573120 0.885090 -0.574088
Cu9   Cu    Cu3+1 0.495240 0.500000 0.924150 0.981526
Cu10  Cu    Cu3+1 0.504760 0.500000 0.075850 0.986511
Cu11  Cu    Cu3+1 0.995240 0.000000 0.924150 0.975540
Cu12  Cu    Cu3+1 0.004760 0.000000 0.075850 0.982072
C181  C     C_R   0.927670 0.900840 0.064981 0.802265
C182  C     C_R   0.076641 0.092486 0.930958 0.809888
C183  C     C_R   0.072814 0.901492 0.934632 0.782907
C184  C     C_R   0.927863 0.099797 0.064709 0.813681
C185  C     C_R   0.427637 0.400881 0.064999 0.789968
C186  C     C_R   0.576666 0.592430 0.930935 0.820385
C187  C     C_R   0.573035 0.401521 0.934498 0.779672
C188  C     C_R   0.424108 0.594100 0.068016 0.820481
O41   O     O_R   0.940620 0.926560 0.986760 -0.584960
O42   O     O_R   0.059380 0.073440 0.013240 -0.585545
O43   O     O_R   0.059380 0.926560 0.013240 -0.600361
O44   O     O_R   0.940620 0.073440 0.986760 -0.589176
O45   O     O_R   0.440620 0.426560 0.986760 -0.595816
O46   O     O_R   0.559380 0.573440 0.013240 -0.583362
O47   O     O_R   0.559380 0.426560 0.013240 -0.598589
O48   O     O_R   0.440620 0.573440 0.986760 -0.590295
N1    N     N_R   0.364075 0.746855 0.755527 0.114261
O49   O     O_R   0.396876 0.772446 0.783788 -0.338708
O50   O     O_R   0.383788 0.719588 0.675636 -0.352170
N2    N     N_R   0.698659 0.394335 0.194380 0.113298
O51   O     O_R   0.699737 0.444609 0.140205 -0.356036
O52   O     O_R   0.670712 0.404018 0.280095 -0.355082
N3    N     N_R   0.647247 0.708394 0.230526 0.090736
O53   O     O_R   0.610979 0.734591 0.210867 -0.367577
O54   O     O_R   0.632623 0.666188 0.299160 -0.369622
N4    N     N_R   0.301181 0.389424 0.811713 0.110719
O55   O     O_R   0.298261 0.435394 0.871888 -0.353485
O56   O     O_R   0.325915 0.407648 0.727833 -0.362742
N5    N     N_R   0.870727 0.289472 0.744458 0.104534
O57   O     O_R   0.898230 0.329012 0.772670 -0.347112
O58   O     O_R   0.894035 0.265811 0.662696 -0.363325
N6    N     N_R   0.203232 0.897263 0.189325 0.113535
O59   O     O_R   0.205503 0.945118 0.131631 -0.357834
O60   O     O_R   0.177907 0.912355 0.274119 -0.354237
N7    N     N_R   0.146921 0.209083 0.231005 0.090287
O61   O     O_R   0.110595 0.235262 0.211478 -0.369974
O62   O     O_R   0.132396 0.166695 0.299452 -0.371665
N8    N     N_R   0.801892 0.888417 0.811211 0.110520
O63   O     O_R   0.798908 0.934526 0.871291 -0.340176
O64   O     O_R   0.826855 0.906379 0.727250 -0.365422

loop_
_geom_bond_atom_site_label_1
_geom_bond_atom_site_label_2
_geom_bond_distance
_ccdc_geom_bond_type
N8    O64   1.301510 A    
C101  C149  1.414649 A    
C130  C138  1.428002 A    
Cu2   Cu5   2.679810 S    
C59   C64   1.396755 A    
C23   C70   1.388111 A    
C111  C119  1.397158 A    
C162  H42   1.083020 S    
C105  C153  1.409056 A    
C119  C127  1.396603 A    
N1    O49   1.301623 A    
C117  C125  1.397584 A    
C77   C98   1.412908 A    
C110  C118  1.401575 A    
C83   C147  1.417359 A    
C134  C142  1.415014 A    
C80   C99   1.407026 A    
C38   C40   1.413438 A    
C81   C94   1.412976 A    
C127  C135  1.428917 A    
Cu6   O22   1.963442 S    
C125  C133  1.427411 A    
C6    O22   1.288754 A    
C133  C141  1.412136 A    
C170  H50   1.078906 S    
C2    C129  1.481036 S    
C33   C35   1.407429 A    
O39   C185  1.311852 A    
O3    Cu3   1.964237 S    
C36   C43   1.399947 A    
C128  C136  1.423457 A    
C87   C95   1.406916 A    
C120  C128  1.396766 A    
C49   C57   1.431408 A    
C138  C146  1.411625 A    
C174  N2    1.439116 S    
C132  C140  1.423451 A    
C25   C27   1.394866 A    
C106  C154  1.417528 A    
C136  C144  1.407242 A    
O25   C9    1.287408 A    
C29   C31   1.394919 A    
N4    O56   1.301408 A    
C106  C114  1.435010 A    
C38   C42   1.409279 A    
C45   C53   1.431665 A    
C178  N6    1.438733 S    
C102  C142  1.419271 A    
Cu12  O43   1.969737 S    
C3    O19   1.284647 A    
N6    O59   1.301738 A    
C134  C166  1.412246 A    
C112  C182  1.480219 S    
C86   C94   1.422157 A    
C87   C175  1.407236 A    
C13   C54   1.488750 S    
O12   Cu4   1.959284 S    
O13   Cu5   1.959296 S    
C138  C170  1.412899 A    
C167  C175  1.390192 A    
H2    C31   1.083730 S    
C34   C36   1.413176 A    
C152  H32   1.077370 S    
O33   C183  1.314717 A    
H6    C27   1.083731 S    
O34   C184  1.319070 A    
C149  H29   1.078335 S    
C156  H36   1.077399 S    
C115  C123  1.397138 A    
C116  C124  1.396607 A    
C45   C71   1.418787 A    
C16   C55   1.476419 S    
O2    C13   1.312499 A    
C176  N4    1.438083 S    
C100  C159  1.400134 A    
C50   C68   1.419096 A    
C9    C58   1.488635 S    
H7    C26   1.083533 S    
C50   C58   1.429327 A    
C60   C63   1.401656 A    
C185  O45   1.288082 A    
C136  C168  1.411916 A    
Cu3   O19   1.962715 S    
C104  C144  1.414456 A    
C183  O43   1.286804 A    
C184  O44   1.289355 A    
C175  N3    1.435460 S    
C118  H22   1.083213 S    
O5    Cu5   1.955621 S    
C40   C41   1.399988 A    
C74   H18   1.072563 S    
C122  H26   1.083295 S    
C150  C158  1.392883 A    
C103  C151  1.415080 A    
N7    O62   1.301136 A    
C172  C180  1.400280 A    
C14   C53   1.494727 S    
C21   C29   1.402152 A    
C107  C147  1.412296 A    
O27   C11   1.281460 A    
C114  C122  1.398127 A    
C23   C31   1.403928 A    
O15   C4    1.306579 A    
C34   C44   1.409300 A    
C26   C28   1.398136 A    
C55   C62   1.396765 A    
C52   C74   1.423063 A    
N6    O60   1.301451 A    
O10   Cu2   1.959296 S    
O7    C12   1.305816 A    
Cu2   O26   1.959070 S    
C30   C32   1.398422 A    
N5    O58   1.301704 A    
C6    C125  1.483083 S    
C18   C26   1.402732 A    
C182  O42   1.290632 A    
C82   C93   1.409741 A    
C124  C132  1.396693 A    
C10   C57   1.494447 S    
H8    C25   1.083688 S    
C62   H10   1.083519 S    
C101  C109  1.430985 A    
O28   C12   1.280638 A    
O16   C3    1.303836 A    
N2    O52   1.301486 A    
O29   C13   1.287268 A    
H1    C32   1.080628 S    
C135  C143  1.411711 A    
C45   C65   1.416899 A    
Cu9   O48   1.969735 S    
C109  C117  1.397105 A    
Cu4   O28   1.965781 S    
C47   C55   1.430199 A    
Cu10  O47   1.969737 S    
Cu5   O29   1.959070 S    
H5    C28   1.080593 S    
C167  H47   1.073086 S    
C153  H33   1.079239 S    
C52   C60   1.432305 A    
C4    C131  1.481910 S    
Cu7   O31   1.965781 S    
Cu8   O32   1.965781 S    
C48   C65   1.414258 A    
O40   Cu9   1.957900 S    
C84   C148  1.414046 A    
C15   C56   1.486671 S    
C78   C142  1.432190 A    
H3    C30   1.083535 S    
C91   C99   1.406891 A    
C49   C67   1.416809 A    
Cu4   Cu7   2.669356 S    
Cu12  O42   1.962298 S    
C86   C174  1.414621 A    
C52   C67   1.414172 A    
C99   C160  1.398360 A    
C46   C54   1.429490 A    
O9    C6    1.306789 A    
O26   C10   1.290115 A    
C105  C145  1.417401 A    
C41   C65   1.418012 A    
O11   C8    1.306566 A    
C19   C33   1.395571 A    
O12   C7    1.303775 A    
C43   C67   1.417920 A    
O13   C2    1.305692 A    
C104  C112  1.423461 A    
C19   C27   1.403967 A    
C153  C161  1.393098 A    
C64   H12   1.083516 S    
C107  C115  1.427853 A    
C165  C173  1.397329 A    
C108  C116  1.423485 A    
C163  H43   1.082321 S    
C164  H44   1.082609 S    
C179  N7    1.435430 S    
C160  H40   1.082606 S    
O37   C187  1.317238 A    
C161  H41   1.081714 S    
C20   C28   1.404246 A    
O38   C188  1.316020 A    
O1    Cu1   1.955621 S    
C20   C34   1.398158 A    
C108  C148  1.414437 A    
C44   C68   1.417687 A    
C24   C32   1.404376 A    
C166  C174  1.398882 A    
C46   C66   1.419145 A    
C47   C69   1.422271 A    
Cu11  O41   1.962298 S    
O7    Cu7   1.964237 S    
C83   C91   1.408009 A    
O8    Cu8   1.964239 S    
C113  C121  1.394852 A    
O36   Cu11  1.957900 S    
C154  C162  1.386383 A    
Cu11  Cu12  2.685171 S    
C88   C176  1.415612 A    
C20   C73   1.395997 A    
C180  N8    1.437832 S    
C149  C157  1.393154 A    
C102  C150  1.414398 A    
C24   C69   1.396423 A    
C150  H30   1.073748 S    
C129  C137  1.428343 A    
C186  O46   1.290611 A    
C158  H38   1.079004 S    
O36   C182  1.307085 A    
C118  C126  1.400554 A    
O11   Cu3   1.959284 S    
C42   C66   1.417877 A    
C77   C85   1.408200 A    
C75   H19   1.078790 S    
C76   H20   1.078295 S    
C91   C179  1.407209 A    
C119  H23   1.083421 S    
C53   C61   1.401153 A    
O6    Cu6   1.955619 S    
C95   C164  1.398406 A    
C117  H21   1.083492 S    
C152  C160  1.385083 A    
C171  C179  1.390205 A    
C1    C130  1.486714 S    
C120  H24   1.083379 S    
C121  H25   1.083564 S    
C12   C59   1.476189 S    
Cu3   O27   1.965781 S    
C124  H28   1.083377 S    
C103  C111  1.427726 A    
C21   C39   1.404508 A    
C139  C171  1.414640 A    
C112  C120  1.396608 A    
C50   C76   1.414720 A    
N8    O63   1.301665 A    
C57   C63   1.401015 A    
C137  C145  1.409522 A    
C151  H31   1.078406 S    
C140  C172  1.411864 A    
Cu1   O17   1.963441 S    
C8    C127  1.481839 S    
C155  C163  1.392277 A    
N1    O50   1.301575 A    
N3    O53   1.301541 A    
C115  C185  1.482676 S    
C17   C76   1.394410 A    
C82   C146  1.422136 A    
C19   C74   1.387981 A    
Cu9   O45   1.962298 S    
C37   C41   1.406684 A    
C168  C176  1.400543 A    
C21   C72   1.394396 A    
C101  C141  1.413044 A    
O40   C186  1.307045 A    
C77   C141  1.420160 A    
C135  C167  1.414673 A    
C133  C165  1.412257 A    
C102  C110  1.441448 A    
C79   C87   1.408148 A    
O30   C14   1.290189 A    
C139  C147  1.411785 A    
C137  C169  1.409037 A    
C98   C157  1.401360 A    
C107  C155  1.415220 A    
Cu6   O30   1.959070 S    
C79   C100  1.410476 A    
O4    C15   1.309719 A    
O5    C10   1.312548 A    
C54   C62   1.394673 A    
C80   C144  1.414045 A    
O37   Cu9   1.966537 S    
N4    O55   1.301665 A    
C89   C177  1.421667 A    
C90   C98   1.422555 A    
C71   H15   1.078821 S    
C109  C183  1.485937 S    
C110  C184  1.501699 S    
C69   H13   1.074292 S    
C111  C181  1.482830 S    
C24   C38   1.398249 A    
C51   C59   1.429847 A    
Cu1   Cu6   2.679810 S    
C48   C70   1.422957 A    
C82   C90   1.411707 A    
Cu3   Cu8   2.669356 S    
O10   C5    1.312666 A    
O14   Cu6   1.959296 S    
N5    O57   1.301687 A    
C7    C128  1.478000 S    
C121  C129  1.397194 A    
O14   C1    1.309408 A    
C92   C180  1.415516 A    
C17   C35   1.404619 A    
N7    O61   1.301540 A    
Cu4   O20   1.962714 S    
Cu5   O21   1.963441 S    
C4    O20   1.282113 A    
C84   C92   1.412535 A    
C39   C42   1.400946 A    
C5    O21   1.289545 A    
C168  H48   1.079780 S    
C169  H49   1.079604 S    
C88   C96   1.418986 A    
C151  C159  1.392348 A    
C89   C97   1.432482 A    
C92   C100  1.418975 A    
C22   C30   1.402867 A    
C122  C130  1.398329 A    
C49   C75   1.418604 A    
C22   C40   1.405618 A    
C80   C88   1.412480 A    
C173  N1    1.439644 S    
C81   C89   1.418122 A    
C51   C73   1.422083 A    
C58   C64   1.394717 A    
C35   C44   1.400834 A    
C72   H16   1.078254 S    
C78   C86   1.413042 A    
C156  C164  1.385206 A    
C56   C61   1.401696 A    
C166  H46   1.076894 S    
C105  C113  1.433570 A    
C5    C126  1.495961 S    
C17   C25   1.402086 A    
C18   C75   1.403321 A    
O39   Cu10  1.957900 S    
C51   C68   1.411989 A    
C23   C37   1.395683 A    
C22   C71   1.403760 A    
C2    O18   1.289077 A    
C11   C60   1.486440 S    
C187  O47   1.287526 A    
C61   H9    1.083230 S    
C85   C93   1.413006 A    
C104  C152  1.412376 A    
O15   Cu7   1.959284 S    
C113  C187  1.492313 S    
C140  C148  1.407172 A    
C114  C188  1.490350 S    
C170  C178  1.401995 A    
C108  C156  1.412399 A    
C37   C39   1.407512 A    
C47   C66   1.412156 A    
H4    C29   1.083687 S    
C169  C177  1.402245 A    
O33   Cu11  1.966537 S    
O34   Cu12  1.966534 S    
C81   C145  1.427587 A    
C103  C143  1.412388 A    
C79   C143  1.417315 A    
Cu9   Cu10  2.685171 S    
C165  H45   1.077625 S    
C123  C131  1.396561 A    
N3    O54   1.301138 A    
O1    C14   1.312618 A    
O3    C16   1.306014 A    
Cu11  O44   1.969735 S    
C131  C139  1.428957 A    
C154  H34   1.073471 S    
C85   C173  1.413458 A    
C33   C43   1.406742 A    
O35   Cu12  1.957900 S    
Cu2   O18   1.963442 S    
O8    C11   1.309757 A    
C106  C146  1.418002 A    
C97   C158  1.404061 A    
O9    Cu1   1.959296 S    
N2    O51   1.301791 A    
O35   C181  1.311709 A    
C93   C162  1.395485 A    
C116  C186  1.480150 S    
C181  O41   1.288268 A    
C94   C161  1.406007 A    
Cu10  O46   1.962298 S    
O31   C15   1.281625 A    
C73   H17   1.074231 S    
O32   C16   1.280559 A    
C3    C132  1.477939 S    
O2    Cu2   1.955619 S    
C123  H27   1.083426 S    
O4    Cu4   1.964239 S    
C159  H39   1.082309 S    
C171  H51   1.073043 S    
C172  H52   1.079759 S    
C84   C95   1.406917 A    
C48   C56   1.432214 A    
C157  H37   1.082123 S    
C177  N5    1.438435 S    
C96   C163  1.400024 A    
C83   C96   1.410549 A    
C78   C97   1.415512 A    
C90   C178  1.415197 A    
Cu7   O23   1.962715 S    
Cu8   O24   1.962714 S    
C7    O23   1.284759 A    
C8    O24   1.282095 A    
O6    C9    1.312330 A    
Cu1   O25   1.959070 S    
C188  O48   1.286306 A    
C18   C36   1.405590 A    
C155  H35   1.078346 S    
C126  C134  1.432578 A    
O16   Cu8   1.959284 S    
O38   Cu10  1.966534 S    
C1    O17   1.289059 A    
C63   H11   1.083229 S    
C70   H14   1.072649 S    
C46   C72   1.414839 A    
