data_str_m2_o40_o41_f0_fof.sym.63
_audit_creation_date              2012-10-26T17:12:51-0400
_audit_creation_method            fapswitch 2.2
_symmetry_space_group_name_H-M    P1
_symmetry_Int_Tables_number       1
_space_group_crystal_system       triclinic
_cell_length_a                    27.89655
_cell_length_b                    18.795202
_cell_length_c                    16.760556
_cell_angle_alpha                 90.083063
_cell_angle_beta                  62.910353
_cell_angle_gamma                 89.882965
_cell_volume                      7823.794656

loop_
_atom_site_label
_atom_site_type_symbol
_atom_type_description
_atom_site_fract_x
_atom_site_fract_y
_atom_site_fract_z
_atom_type_partial_charge
C1    C     C_R   0.293934 0.725155 0.329507 0.902430
C2    C     C_R   0.707988 0.278032 0.668791 0.930404
C3    C     C_R   0.705795 0.725830 0.670292 0.868755
C4    C     C_R   0.297139 0.267300 0.327757 0.822523
C5    C     C_R   0.793187 0.223973 0.330199 0.916596
C6    C     C_R   0.207514 0.777301 0.669274 0.943738
C7    C     C_R   0.202783 0.233738 0.672271 0.890382
C8    C     C_R   0.796185 0.769105 0.328107 0.838289
C9    C     C_R   0.400667 0.995586 0.489985 0.074243
C10   C     C_R   0.591709 0.995553 0.527831 0.067805
C11   C     C_R   0.907460 0.500772 0.468289 0.071023
C12   C     C_R   0.105594 0.500011 0.481488 0.067495
C13   C     C_R   0.582036 0.868421 0.553306 -0.204366
C14   C     C_R   0.385875 0.117199 0.540770 -0.233310
C15   C     C_R   0.416444 0.871737 0.447910 -0.214899
C16   C     C_R   0.597759 0.120826 0.495641 -0.228468
C17   C     C_R   0.115270 0.374965 0.449491 -0.221514
C18   C     C_R   0.899113 0.624493 0.509502 -0.231009
C19   C     C_R   0.919647 0.377294 0.424824 -0.223093
C20   C     C_R   0.107844 0.626737 0.468639 -0.221975
C21   C     C_R   0.223729 0.789664 0.953773 -0.077711
C22   C     C_R   0.783557 0.247536 0.044146 -0.069948
C23   C     C_R   0.783122 0.762885 0.040324 -0.088726
C24   C     C_R   0.220732 0.235517 0.953112 -0.080602
C25   C     C_R   0.724137 0.290881 0.953533 -0.066033
C26   C     C_R   0.283776 0.747974 0.043852 -0.073766
C27   C     C_R   0.285505 0.259169 0.040152 -0.080417
C28   C     C_R   0.721801 0.726419 0.950885 -0.077074
C29   C     C_R   0.279365 0.774666 0.905169 0.019045
C30   C     C_R   0.729608 0.274558 0.094246 0.047595
C31   C     C_R   0.728660 0.741272 0.089190 -0.012868
C32   C     C_R   0.262997 0.285097 0.917768 0.008945
C33   C     C_R   0.780816 0.281241 0.905493 0.012348
C34   C     C_R   0.230880 0.778063 0.094100 0.038860
C35   C     C_R   0.239400 0.215293 0.080907 -0.031141
C36   C     C_R   0.777411 0.742436 0.901216 -0.005484
C37   C     C_R   0.307603 0.744519 0.949591 0.058829
C38   C     C_R   0.697409 0.292164 0.049390 0.010016
C39   C     C_R   0.698332 0.720040 0.044836 0.042698
C40   C     C_R   0.300868 0.288681 0.953689 0.056336
C41   C     C_R   0.810230 0.251234 0.949050 0.051326
C42   C     C_R   0.198660 0.796040 0.049277 -0.011607
C43   C     C_R   0.210727 0.198018 0.032077 0.043336
C44   C     C_R   0.806348 0.770010 0.946450 0.054899
C45   C     C_R   0.139084 0.818811 0.950827 -0.009399
C46   C     C_R   0.864303 0.192155 0.045757 -0.008573
C47   C     C_R   0.864345 0.811663 0.043210 -0.044748
C48   C     C_R   0.142878 0.177462 0.949377 -0.022119
C49   C     C_R   0.639522 0.318298 0.949214 -0.007217
C50   C     C_R   0.364868 0.691221 0.043104 -0.013321
C51   C     C_R   0.363545 0.314220 0.045142 -0.036864
C52   C     C_R   0.637384 0.685652 0.953009 -0.045828
C53   C     C_R   0.111683 0.840759 0.901818 -0.174158
C54   C     C_R   0.888939 0.161285 0.096736 -0.177373
C55   C     C_R   0.889474 0.838304 0.095299 -0.109813
C56   C     C_R   0.113212 0.158227 0.901939 -0.196595
C57   C     C_R   0.612402 0.341463 0.900512 -0.160987
C58   C     C_R   0.390296 0.662583 0.094512 -0.180831
C59   C     C_R   0.388870 0.340207 0.096908 -0.114821
C60   C     C_R   0.610573 0.660591 0.903520 -0.105057
C61   C     C_R   0.131950 0.818586 0.812465 0.300163
C62   C     C_R   0.868362 0.180649 0.187253 0.293781
C63   C     C_R   0.871664 0.812998 0.183290 0.329064
C64   C     C_R   0.129203 0.186935 0.815337 0.299336
C65   C     C_R   0.632788 0.319832 0.811226 0.293732
C66   C     C_R   0.370188 0.683441 0.185023 0.298154
C67   C     C_R   0.371722 0.314920 0.184775 0.328513
C68   C     C_R   0.629191 0.684190 0.815116 0.294473
C69   C     C_R   0.186736 0.799375 0.764681 -0.124500
C70   C     C_R   0.814894 0.204362 0.233873 -0.129863
C71   C     C_R   0.821279 0.778248 0.228372 -0.227975
C72   C     C_R   0.176791 0.227262 0.772645 -0.122537
C73   C     C_R   0.687590 0.300605 0.763705 -0.128165
C74   C     C_R   0.316733 0.707231 0.232111 -0.126349
C75   C     C_R   0.324298 0.274078 0.227173 -0.231366
C76   C     C_R   0.683270 0.707192 0.766650 -0.180509
C77   C     C_R   0.219695 0.801585 0.810159 -0.062113
C78   C     C_R   0.784636 0.214545 0.185572 -0.034713
C79   C     C_R   0.792044 0.761873 0.179397 -0.114722
C80   C     C_R   0.201359 0.254189 0.825467 -0.050182
C81   C     C_R   0.720592 0.303435 0.809304 -0.064101
C82   C     C_R   0.286877 0.718275 0.183733 -0.028838
C83   C     C_R   0.299621 0.248592 0.174413 -0.109162
C84   C     C_R   0.715942 0.709172 0.811429 -0.040014
C85   C     C_R   0.198642 0.631143 0.519023 0.823399
C86   C     C_R   0.801851 0.368626 0.477320 0.840291
C87   C     C_R   0.798939 0.631153 0.487777 0.863445
C88   C     C_R   0.199115 0.368894 0.517594 0.817845
C89   C     C_R   0.697796 0.130751 0.522468 0.833668
C90   C     C_R   0.303733 0.867594 0.470137 0.846912
C91   C     C_R   0.300860 0.130755 0.480718 0.797291
C92   C     C_R   0.695961 0.867586 0.530184 0.821353
C93   C     C_R   0.194156 0.803130 0.905084 -0.090555
C94   C     C_R   0.811174 0.218576 0.091286 -0.093486
C95   C     C_R   0.813102 0.780236 0.087748 -0.052520
C96   C     C_R   0.188561 0.221856 0.908552 -0.088621
C97   C     C_R   0.694808 0.304274 0.904232 -0.092088
C98   C     C_R   0.312536 0.720449 0.089719 -0.089807
C99   C     C_R   0.315676 0.275228 0.087256 -0.052575
C100  C     C_R   0.691279 0.708681 0.905369 -0.089332
C101  C     C_R   0.112641 0.812734 0.043913 0.425927
C102  C     C_R   0.892039 0.201592 0.952618 0.381261
C103  C     C_R   0.888876 0.813565 0.948383 0.401689
C104  C     C_R   0.129608 0.153306 0.036666 0.411132
C105  C     C_R   0.611778 0.305864 0.040625 0.409076
C106  C     C_R   0.388747 0.691078 0.948272 0.385888
C107  C     C_R   0.387693 0.317475 0.950665 0.384552
C108  C     C_R   0.614161 0.683286 0.047230 0.393372
C109  C     C_R   0.142222 0.816338 0.093292 -0.049233
C110  C     C_R   0.864178 0.222069 0.902840 0.031790
C111  C     C_R   0.857149 0.804845 0.902466 0.048818
C112  C     C_R   0.171206 0.144946 0.060054 0.065358
C113  C     C_R   0.639390 0.305470 0.093428 -0.041246
C114  C     C_R   0.356797 0.705418 0.903873 0.049626
C115  C     C_R   0.355402 0.312808 0.904969 0.009639
C116  C     C_R   0.648062 0.683844 0.088697 0.057851
C117  C     C_R   0.276388 0.808256 0.765907 0.306647
C118  C     C_R   0.729392 0.226861 0.227687 0.344740
C119  C     C_R   0.740931 0.728723 0.218884 0.328937
C120  C     C_R   0.234440 0.315848 0.803580 0.313080
C121  C     C_R   0.777185 0.311632 0.765809 0.297010
C122  C     C_R   0.231764 0.728993 0.225528 0.348758
C123  C     C_R   0.260390 0.194684 0.204455 0.341073
C124  C     C_R   0.772154 0.700453 0.766902 0.327108
C125  C     C_R   0.305948 0.798843 0.815665 0.274982
C126  C     C_R   0.709078 0.275743 0.188245 0.241909
C127  C     C_R   0.706449 0.742783 0.182261 0.393530
C128  C     C_R   0.260946 0.334357 0.856114 0.273307
C129  C     C_R   0.805864 0.309571 0.817807 0.302740
C130  C     C_R   0.210538 0.778368 0.188297 0.244187
C131  C     C_R   0.224298 0.188883 0.168345 0.359749
C132  C     C_R   0.803443 0.718099 0.811240 0.275067
C133  C     C_R   0.929495 0.898289 0.063344 0.891501
C134  C     C_R   0.071956 0.100002 0.935237 0.834457
C135  C     C_R   0.070359 0.898449 0.936330 0.855375
C136  C     C_R   0.929674 0.101984 0.063225 0.856405
C137  C     C_R   0.429008 0.399211 0.063983 0.892698
C138  C     C_R   0.570133 0.601811 0.936768 0.882851
C139  C     C_R   0.570610 0.398641 0.936018 0.850392
C140  C     C_R   0.430109 0.602328 0.062682 0.852826
C141  C     C_R   0.056959 0.629987 0.473368 -0.001179
C142  C     C_R   0.967236 0.373068 0.434668 0.037682
C143  C     C_R   0.952454 0.629141 0.492508 0.015406
C144  C     C_R   0.065641 0.371885 0.445942 0.035099
C145  C     C_R   0.544121 0.123768 0.511247 0.008428
C146  C     C_R   0.456659 0.866432 0.476306 0.032798
C147  C     C_R   0.437773 0.121835 0.534252 0.032805
C148  C     C_R   0.539684 0.864514 0.529379 0.035648
C149  C     C_R   0.030819 0.696538 0.478633 0.114489
C150  C     C_R   0.992835 0.306844 0.432299 0.071351
C151  C     C_R   0.976203 0.695800 0.495121 0.074151
C152  C     C_R   0.042813 0.306152 0.437091 0.077011
C153  C     C_R   0.516943 0.189565 0.517570 0.094967
C154  C     C_R   0.479139 0.799878 0.483201 0.068881
C155  C     C_R   0.461147 0.187902 0.539618 0.067106
C156  C     C_R   0.517220 0.798567 0.518640 0.096223
C157  C     C_R   0.981777 0.565295 0.474847 0.003083
C158  C     C_R   0.037234 0.435897 0.455888 -0.004444
C159  C     C_R   0.032224 0.565241 0.472891 0.004761
C160  C     C_R   0.988109 0.436424 0.451111 -0.006118
C161  C     C_R   0.467616 0.058591 0.518656 -0.005149
C162  C     C_R   0.519087 0.929319 0.516089 -0.004183
C163  C     C_R   0.517793 0.059069 0.518506 0.001360
C164  C     C_R   0.474119 0.929788 0.499164 -0.006703
C165  C     C_R   0.447308 0.994507 0.503088 0.002794
C166  C     C_R   0.542878 0.994507 0.520868 0.009652
C167  C     C_R   0.959319 0.500810 0.464043 0.005484
C168  C     C_R   0.058705 0.500280 0.468835 0.009146
C169  C     C_R   0.384023 0.933266 0.464131 0.025248
C170  C     C_R   0.619952 0.060272 0.516780 0.030847
C171  C     C_R   0.612580 0.931707 0.542578 0.011754
C172  C     C_R   0.370556 0.058739 0.504428 0.009858
C173  C     C_R   0.885651 0.437737 0.453341 0.011606
C174  C     C_R   0.128644 0.564598 0.488387 0.042000
C175  C     C_R   0.131466 0.435837 0.480939 0.002397
C176  C     C_R   0.877284 0.563883 0.489123 0.013330
C177  C     C_R   0.335207 0.933754 0.456331 -0.137210
C178  C     C_R   0.667334 0.062742 0.530788 -0.136374
C179  C     C_R   0.662800 0.933148 0.546878 -0.148174
C180  C     C_R   0.327980 0.062176 0.478867 -0.137214
C181  C     C_R   0.829654 0.436151 0.474131 -0.119490
C182  C     C_R   0.170174 0.564661 0.516462 -0.121762
C183  C     C_R   0.171424 0.435442 0.513154 -0.125665
C184  C     C_R   0.825211 0.564145 0.493314 -0.133904
C185  C     C_R   0.312028 0.999046 0.449975 -0.004648
C186  C     C_R   0.684788 0.998948 0.555543 0.004075
C187  C     C_R   0.798131 0.499309 0.503426 -0.000337
C188  C     C_R   0.182652 0.499917 0.545196 0.008943
Cu1   Cu    Cu3+1 0.209920 0.785290 0.495070 0.925060
Cu2   Cu    Cu3+1 0.790080 0.214710 0.504930 0.929118
Cu3   Cu    Cu3+1 0.790080 0.785290 0.504930 0.909910
Cu4   Cu    Cu3+1 0.209920 0.214710 0.495070 0.925572
Cu5   Cu    Cu3+1 0.709920 0.285290 0.495070 0.913225
Cu6   Cu    Cu3+1 0.290080 0.714710 0.504930 0.932844
Cu7   Cu    Cu3+1 0.290080 0.285290 0.504930 0.916775
Cu8   Cu    Cu3+1 0.709920 0.714710 0.495070 0.892465
Cu9   Cu    Cu3+1 0.495240 0.500000 0.924150 1.011517
Cu10  Cu    Cu3+1 0.504760 0.500000 0.075850 1.004878
Cu11  Cu    Cu3+1 0.995240 0.000000 0.924150 0.999064
Cu12  Cu    Cu3+1 0.004760 0.000000 0.075850 0.984046
H1    H     H_    0.589879 0.822713 0.583279 0.173716
H2    H     H_    0.357876 0.159113 0.574148 0.183546
H3    H     H_    0.410955 0.828325 0.411304 0.179031
H4    H     H_    0.621002 0.166221 0.464931 0.216812
H5    H     H_    0.142053 0.330832 0.423406 0.186149
H6    H     H_    0.873770 0.666667 0.547020 0.221423
H7    H     H_    0.909655 0.333333 0.394107 0.177109
H8    H     H_    0.129901 0.673898 0.448404 0.227086
O1    O     O_R   0.255040 0.869590 0.478480 -0.611997
O2    O     O_R   0.744960 0.130410 0.521520 -0.587365
O3    O     O_R   0.744960 0.869590 0.521520 -0.598195
O4    O     O_R   0.255040 0.130410 0.478480 -0.578617
O5    O     O_R   0.755040 0.369590 0.478480 -0.599675
O6    O     O_R   0.244960 0.630410 0.521520 -0.594641
O7    O     O_R   0.244960 0.369590 0.521520 -0.569094
O8    O     O_R   0.755040 0.630410 0.478480 -0.604136
O9    O     O_R   0.182050 0.796550 0.624440 -0.536624
O10   O     O_R   0.817950 0.203450 0.375560 -0.541802
O11   O     O_R   0.817950 0.796550 0.375560 -0.560678
O12   O     O_R   0.182050 0.203450 0.624440 -0.531155
O13   O     O_R   0.682050 0.296550 0.624440 -0.560920
O14   O     O_R   0.317950 0.703450 0.375560 -0.539670
O15   O     O_R   0.317950 0.296550 0.375560 -0.559307
O16   O     O_R   0.682050 0.703450 0.624440 -0.597581
O17   O     O_R   0.250530 0.763330 0.367210 -0.580512
O18   O     O_R   0.749470 0.236670 0.632790 -0.580903
O19   O     O_R   0.749470 0.763330 0.632790 -0.562758
O20   O     O_R   0.250530 0.236670 0.367210 -0.567139
O21   O     O_R   0.750530 0.263330 0.367210 -0.567867
O22   O     O_R   0.249470 0.736670 0.632790 -0.581422
O23   O     O_R   0.249470 0.263330 0.632790 -0.568789
O24   O     O_R   0.750530 0.736670 0.367210 -0.558684
O25   O     O_R   0.177260 0.690030 0.513710 -0.611564
O26   O     O_R   0.822740 0.309970 0.486290 -0.586464
O27   O     O_R   0.822740 0.690030 0.486290 -0.594604
O28   O     O_R   0.177260 0.309970 0.513710 -0.610336
O29   O     O_R   0.677260 0.190030 0.513710 -0.607571
O30   O     O_R   0.322740 0.809970 0.486290 -0.592660
O31   O     O_R   0.322740 0.190030 0.486290 -0.617732
O32   O     O_R   0.677260 0.809970 0.513710 -0.616466
O33   O     O_R   0.051640 0.926880 0.885090 -0.562354
O34   O     O_R   0.948360 0.073120 0.114910 -0.569584
O35   O     O_R   0.948360 0.926880 0.114910 -0.524396
O36   O     O_R   0.051640 0.073120 0.885090 -0.552074
O37   O     O_R   0.551640 0.426880 0.885090 -0.573867
O38   O     O_R   0.448360 0.573120 0.114910 -0.561967
O39   O     O_R   0.448360 0.426880 0.114910 -0.525872
O40   O     O_R   0.551640 0.573120 0.885090 -0.525202
O41   O     O_R   0.940620 0.926560 0.986760 -0.577977
O42   O     O_R   0.059380 0.073440 0.013240 -0.560390
O43   O     O_R   0.059380 0.926560 0.013240 -0.586792
O44   O     O_R   0.940620 0.073440 0.986760 -0.551873
O45   O     O_R   0.440620 0.426560 0.986760 -0.569742
O46   O     O_R   0.559380 0.573440 0.013240 -0.573271
O47   O     O_R   0.559380 0.426560 0.013240 -0.585313
O48   O     O_R   0.440620 0.573440 0.986760 -0.548154
C189  C     C_3   0.529872 0.727396 0.549680 -0.369955
C190  C     C_3   0.569064 0.679085 0.472692 -0.459726
C191  C     C_3   0.624242 0.673651 0.468662 -0.662476
H9    H     H_    0.645699 0.724024 0.441322 0.290080
H10   H     H_    0.621041 0.662588 0.535968 0.243807
H11   H     H_    0.647331 0.629771 0.422688 0.233439
H12   H     H_    0.552008 0.624481 0.482530 0.208828
H13   H     H_    0.574682 0.698239 0.406368 0.230197
H14   H     H_    0.542471 0.733174 0.603039 0.186590
H15   H     H_    0.491440 0.698279 0.586215 0.171311
C192  C     C_3   0.428063 0.256230 0.562801 -0.428661
C193  C     C_3   0.425572 0.287469 0.480193 -0.346753
C194  C     C_3   0.392781 0.356215 0.502995 -0.789855
H16   H     H_    0.352129 0.347642 0.559569 0.260097
H17   H     H_    0.413684 0.398524 0.521328 0.227150
H18   H     H_    0.388197 0.374256 0.443772 0.256009
H19   H     H_    0.466721 0.298175 0.426819 0.210849
H20   H     H_    0.407625 0.248703 0.451990 0.253055
H21   H     H_    0.387068 0.247425 0.618045 0.180809
H22   H     H_    0.444704 0.295696 0.592091 0.207226
C195  C     C_3   0.461153 0.730726 0.455769 -0.420602
C196  C     C_3   0.406745 0.703592 0.527321 -0.376465
C197  C     C_3   0.391051 0.634304 0.497638 -0.774091
H23   H     H_    0.419892 0.591274 0.491552 0.225117
H24   H     H_    0.350102 0.618081 0.547740 0.240615
H25   H     H_    0.390785 0.641515 0.432079 0.282414
H26   H     H_    0.408293 0.694527 0.591463 0.204522
H27   H     H_    0.375199 0.743340 0.539822 0.268738
H28   H     H_    0.460673 0.737499 0.390426 0.197388
H29   H     H_    0.490078 0.687063 0.441251 0.205807
C198  C     C_3   0.548100 0.259976 0.495946 -0.442828
C199  C     C_3   0.569379 0.280646 0.563289 -0.285631
C200  C     C_3   0.538311 0.342335 0.623615 -0.873441
H30   H     H_    0.556835 0.357815 0.667146 0.291671
H31   H     H_    0.496673 0.325542 0.666918 0.254882
H32   H     H_    0.538504 0.389170 0.583153 0.242082
H33   H     H_    0.568012 0.235095 0.606432 0.243438
H34   H     H_    0.612023 0.297435 0.525138 0.228539
H35   H     H_    0.582472 0.255220 0.428084 0.146612
H36   H     H_    0.525646 0.305011 0.486829 0.207117
C201  C     C_3   0.067111 0.235666 0.447323 -0.406955
C202  C     C_3   0.051199 0.222423 0.546794 -0.356382
C203  C     C_3   0.072632 0.151488 0.561041 -0.798976
H37   H     H_    0.058264 0.107160 0.533631 0.229239
H38   H     H_    0.117250 0.152246 0.527966 0.267179
H39   H     H_    0.058122 0.142534 0.633877 0.264884
H40   H     H_    0.067123 0.265522 0.573434 0.247800
H41   H     H_    0.006611 0.222638 0.586189 0.209693
H42   H     H_    0.054391 0.189895 0.420092 0.205711
H43   H     H_    0.111364 0.234204 0.406343 0.190475
C204  C     C_3   0.944701 0.765701 0.509485 -0.428775
C205  C     C_3   0.943980 0.790054 0.422734 -0.337913
C206  C     C_3   0.915723 0.861861 0.435387 -0.791720
H44   H     H_    0.873316 0.858002 0.487966 0.252289
H45   H     H_    0.936769 0.903112 0.455163 0.227651
H46   H     H_    0.916042 0.878354 0.371584 0.274502
H47   H     H_    0.985931 0.794865 0.368627 0.208763
H48   H     H_    0.922878 0.750165 0.401221 0.241760
H49   H     H_    0.903318 0.762226 0.564763 0.183651
H50   H     H_    0.960885 0.808693 0.534872 0.207341
C207  C     C_3   0.963237 0.237252 0.437385 -0.443540
C208  C     C_3   0.982208 0.203668 0.344408 -0.325950
C209  C     C_3   0.958599 0.129376 0.351493 -0.778757
H51   H     H_    0.971643 0.094087 0.391128 0.222800
H52   H     H_    0.913910 0.132003 0.384290 0.281276
H53   H     H_    0.972954 0.106175 0.283451 0.263949
H54   H     H_    0.969594 0.237729 0.303148 0.240242
H55   H     H_    0.026813 0.199675 0.309495 0.223515
H56   H     H_    0.967904 0.199360 0.483982 0.199216
H57   H     H_    0.918956 0.244890 0.469349 0.208828
C210  C     C_3   0.061542 0.767091 0.464629 -0.450306
C211  C     C_3   0.071793 0.788655 0.544456 -0.268849
C212  C     C_3   0.023407 0.824684 0.619380 -0.848583
H58   H     H_    0.012594 0.873485 0.593983 0.236958
H59   H     H_    0.989176 0.787058 0.646423 0.253028
H60   H     H_    0.033221 0.839990 0.674266 0.270683
H61   H     H_    0.082364 0.742033 0.573663 0.248578
H62   H     H_    0.106257 0.826233 0.520283 0.205502
H63   H     H_    0.100509 0.762888 0.403572 0.150383
H64   H     H_    0.043210 0.812003 0.445761 0.197086
C213  C     C_3   0.279484 0.001547 0.395941 -0.308918
C214  C     C_3   0.216880 0.000893 0.451811 -0.246209
C215  C     C_3   0.188687 0.041931 0.406608 -0.812217
H65   H     H_    0.195254 0.099803 0.408231 0.304159
H66   H     H_    0.203414 0.023715 0.336229 0.282978
H67   H     H_    0.144665 0.032107 0.442803 0.208206
H68   H     H_    0.200541 0.946593 0.458283 0.224966
H69   H     H_    0.203686 0.021273 0.520898 0.233722
H70   H     H_    0.292833 0.048511 0.351381 0.203975
H71   H     H_    0.291507 0.956380 0.347703 0.168667
C216  C     C_3   0.716088 0.001679 0.611194 -0.330390
C217  C     C_3   0.778432 0.000625 0.556532 -0.231145
C218  C     C_3   0.805608 0.045435 0.599893 -0.887203
H72   H     H_    0.791789 0.101478 0.609643 0.298382
H73   H     H_    0.797091 0.022691 0.666177 0.236265
H74   H     H_    0.849727 0.044408 0.555630 0.225311
H75   H     H_    0.794825 0.946696 0.554295 0.222602
H76   H     H_    0.791905 0.017588 0.486106 0.237354
H77   H     H_    0.702452 0.049273 0.655565 0.191408
H78   H     H_    0.703721 0.956497 0.659163 0.162070
C219  C     C_3   0.737619 0.496362 0.570758 -0.298674
C220  C     C_3   0.697787 0.501647 0.529784 -0.291129
C221  C     C_3   0.646717 0.458295 0.581555 -0.815545
H79   H     H_    0.655027 0.401030 0.567526 0.297239
H80   H     H_    0.629876 0.468223 0.654763 0.272353
H81   H     H_    0.616041 0.473755 0.559776 0.216400
H82   H     H_    0.683058 0.556867 0.534259 0.239533
H83   H     H_    0.717189 0.485619 0.458070 0.231371
H84   H     H_    0.729755 0.447473 0.612102 0.204834
H85   H     H_    0.727857 0.539922 0.620871 0.179902
C222  C     C_3   0.196405 0.500121 0.623807 -0.376222
C223  C     C_3   0.152451 0.462238 0.705936 -0.326231
C224  C     C_3   0.152092 0.486759 0.793252 -0.770794
H86   H     H_    0.136991 0.542347 0.808738 0.236170
H87   H     H_    0.125162 0.451957 0.849164 0.251802
H88   H     H_    0.193177 0.484721 0.787959 0.262002
H89   H     H_    0.112045 0.473705 0.710866 0.215883
H90   H     H_    0.158873 0.403789 0.698737 0.246008
H91   H     H_    0.236522 0.476318 0.604954 0.226734
H92   H     H_    0.198440 0.555116 0.645811 0.206377
O49   O     O_3   0.099121 0.816248 0.770786 -0.707092
H93   H     H_    0.061378 0.809642 0.817130 0.347741
O50   O     O_3   0.900062 0.177113 0.230782 -0.708756
H94   H     H_    0.937787 0.187236 0.186515 0.339025
O51   O     O_3   0.904342 0.823313 0.224010 -0.700946
H95   H     H_    0.904976 0.778131 0.253993 0.323087
O52   O     O_3   0.098716 0.176392 0.770730 -0.702989
H96   H     H_    0.060623 0.185311 0.814247 0.345851
O53   O     O_3   0.599854 0.317037 0.769821 -0.721743
H97   H     H_    0.562171 0.309976 0.816199 0.347234
O54   O     O_3   0.401784 0.679569 0.228763 -0.705098
H98   H     H_    0.439698 0.688066 0.184193 0.347031
O55   O     O_3   0.402676 0.329751 0.227592 -0.689928
H99   H     H_    0.406302 0.284983 0.255683 0.322009
O56   O     O_3   0.594464 0.681725 0.777332 -0.688856
H100  H     H_    0.597181 0.728021 0.747331 0.318941
O57   O     O_3   0.058091 0.798978 0.084552 -0.726183
H101  H     H_    0.049832 0.769730 0.138477 0.314476
O58   O     O_3   0.947527 0.196298 0.912027 -0.748429
H102  H     H_    0.962420 0.232203 0.863545 0.310834
O59   O     O_3   0.944426 0.816624 0.901680 -0.736715
H103  H     H_    0.956269 0.802016 0.838694 0.322912
O60   O     O_3   0.077263 0.158969 0.103681 -0.715549
H104  H     H_    0.075950 0.142273 0.160801 0.321571
O61   O     O_3   0.558118 0.287959 0.075052 -0.740090
H105  H     H_    0.551353 0.249609 0.119461 0.315745
O62   O     O_3   0.443841 0.682424 0.899851 -0.704154
H106  H     H_    0.455915 0.701735 0.838693 0.324693
O63   O     O_3   0.443333 0.316778 0.904759 -0.739101
H107  H     H_    0.455062 0.287006 0.850465 0.312350
O64   O     O_3   0.558788 0.682537 0.097746 -0.734152
H108  H     H_    0.549575 0.690507 0.161649 0.318928
C225  C     C_3   0.115881 0.854953 0.183652 -0.386112
C226  C     C_3   0.064214 0.899111 0.208317 -0.335256
C227  C     C_3   0.051058 0.946067 0.290284 -0.905028
H109  H     H_    0.045933 0.913021 0.348465 0.258450
H110  H     H_    0.083625 0.985379 0.276027 0.261402
H111  H     H_    0.012967 0.975443 0.307928 0.248134
H112  H     H_    0.069904 0.934454 0.151835 0.259889
H113  H     H_    0.028850 0.864448 0.225349 0.252329
H114  H     H_    0.107483 0.816334 0.238518 0.216816
H115  H     H_    0.145087 0.896738 0.178324 0.276384
C228  C     C_3   0.892164 0.202432 0.803127 -0.380979
C229  C     C_3   0.860067 0.150386 0.775999 -0.350547
C230  C     C_3   0.889049 0.138608 0.674792 -0.898007
H116  H     H_    0.883457 0.185475 0.639565 0.255546
H117  H     H_    0.932779 0.129022 0.650725 0.252141
H118  H     H_    0.872464 0.091089 0.658220 0.257558
H119  H     H_    0.856456 0.099036 0.811014 0.224773
H120  H     H_    0.818727 0.169549 0.794932 0.219781
H121  H     H_    0.905244 0.249146 0.758967 0.250909
H122  H     H_    0.930648 0.174083 0.785640 0.203864
C231  C     C_3   0.874237 0.843144 0.813345 -0.388852
C232  C     C_3   0.890580 0.920859 0.815444 -0.354691
C233  C     C_3   0.901084 0.958814 0.728635 -0.895825
H123  H     H_    0.927010 0.926116 0.669372 0.255511
H124  H     H_    0.862421 0.969632 0.726914 0.256087
H125  H     H_    0.922076 0.009688 0.724609 0.260555
H126  H     H_    0.858158 0.949412 0.872896 0.219402
H127  H     H_    0.927999 0.923246 0.823166 0.256310
H128  H     H_    0.908381 0.814585 0.759678 0.219156
H129  H     H_    0.840689 0.844520 0.795087 0.212850
C234  C     C_3   0.185993 0.069397 0.072208 -0.368551
C235  C     C_3   0.206710 0.027177 0.983818 -0.420801
C236  C     C_3   0.245530 0.968290 0.979206 -0.776071
H130  H     H_    0.283095 0.991633 0.975246 0.254031
H131  H     H_    0.226878 0.934354 0.039621 0.269489
H132  H     H_    0.256106 0.935452 0.918397 0.250385
H133  H     H_    0.171993 0.003516 0.977759 0.226026
H134  H     H_    0.228445 0.062748 0.925319 0.226976
H135  H     H_    0.217845 0.069309 0.094457 0.246529
H136  H     H_    0.150293 0.042244 0.124964 0.197626
C237  C     C_3   0.608047 0.331706 0.190497 -0.385780
C238  C     C_3   0.549383 0.358672 0.225621 -0.321809
C239  C     C_3   0.532006 0.404845 0.309469 -0.910323
H137  H     H_    0.542304 0.378714 0.358994 0.253962
H138  H     H_    0.551879 0.457471 0.291788 0.246323
H139  H     H_    0.487881 0.414053 0.340338 0.264181
H140  H     H_    0.545027 0.391861 0.174604 0.283404
H141  H     H_    0.521318 0.312879 0.244020 0.228942
H142  H     H_    0.607616 0.289735 0.237329 0.207068
H143  H     H_    0.629685 0.380149 0.192506 0.277570
C240  C     C_3   0.370115 0.664822 0.816879 -0.410668
C241  C     C_3   0.324651 0.613043 0.827615 -0.340369
C242  C     C_3   0.324089 0.598866 0.738410 -0.864925
H144  H     H_    0.312464 0.648092 0.714822 0.264106
H145  H     H_    0.364355 0.581262 0.687091 0.256000
H146  H     H_    0.294279 0.556767 0.746931 0.241379
H147  H     H_    0.330301 0.561951 0.855581 0.231541
H148  H     H_    0.284300 0.633699 0.874879 0.224853
H149  H     H_    0.380067 0.701032 0.759828 0.245529
H150  H     H_    0.406931 0.631758 0.796450 0.185540
C243  C     C_3   0.382062 0.330296 0.805000 -0.348186
C244  C     C_3   0.401508 0.408296 0.789863 -0.227614
C245  C     C_3   0.408546 0.438080 0.700619 -0.899819
H151  H     H_    0.439027 0.407430 0.643929 0.246424
H152  H     H_    0.369762 0.437178 0.697081 0.275552
H153  H     H_    0.422876 0.493807 0.693946 0.241339
H154  H     H_    0.372241 0.442792 0.844185 0.245922
H155  H     H_    0.440529 0.412335 0.792339 0.221983
H156  H     H_    0.416039 0.293551 0.768400 0.134549
H157  H     H_    0.356803 0.319008 0.771784 0.210294
C246  C     C_3   0.637645 0.625912 0.159060 -0.403606
C247  C     C_3   0.684281 0.571822 0.127759 -0.348477
C248  C     C_3   0.678001 0.521532 0.203175 -0.781581
H158  H     H_    0.638410 0.495031 0.230900 0.240636
H159  H     H_    0.710251 0.480510 0.177008 0.278165
H160  H     H_    0.680959 0.551208 0.258031 0.279166
H161  H     H_    0.685250 0.540272 0.070854 0.220670
H162  H     H_    0.723694 0.598820 0.104241 0.239056
H163  H     H_    0.628583 0.647209 0.225704 0.251333
H164  H     H_    0.600971 0.595161 0.170841 0.189890
O65   O     O_3   0.300911 0.831173 0.678091 -0.736275
H165  H     H_    0.340050 0.822274 0.651886 0.323561
O66   O     O_3   0.696485 0.194844 0.307950 -0.744499
H166  H     H_    0.658760 0.203506 0.319900 0.293801
O67   O     O_3   0.732041 0.664963 0.264113 -0.747795
H167  H     H_    0.767304 0.645191 0.254526 0.332278
O68   O     O_3   0.235587 0.361506 0.738546 -0.742460
H168  H     H_    0.270642 0.386593 0.711838 0.312442
O69   O     O_3   0.802645 0.330250 0.676457 -0.739290
H169  H     H_    0.841174 0.316781 0.651395 0.324565
O70   O     O_3   0.199282 0.690117 0.299503 -0.754213
H170  H     H_    0.163077 0.689861 0.302028 0.296615
O71   O     O_3   0.261894 0.139451 0.257157 -0.755076
H171  H     H_    0.298469 0.137339 0.253046 0.312553
O72   O     O_3   0.793734 0.662221 0.688236 -0.768679
H172  H     H_    0.817992 0.625639 0.692917 0.324891
O73   O     O_3   0.358540 0.821711 0.783625 -0.763120
H173  H     H_    0.363754 0.864184 0.745683 0.331226
O74   O     O_3   0.689973 0.339111 0.233300 -0.778969
H174  H     H_    0.680398 0.333073 0.297683 0.336055
O75   O     O_3   0.653254 0.761188 0.234719 -0.760684
H175  H     H_    0.646993 0.765150 0.297736 0.327041
O76   O     O_3   0.280809 0.401865 0.854640 -0.751035
H176  H     H_    0.262001 0.436156 0.833799 0.325935
O77   O     O_3   0.853144 0.346997 0.792498 -0.751504
H177  H     H_    0.858140 0.380666 0.743955 0.338862
O78   O     O_3   0.193090 0.841449 0.234727 -0.774618
H178  H     H_    0.182903 0.833751 0.299102 0.334441
O79   O     O_3   0.174781 0.156873 0.217314 -0.770522
H179  H     H_    0.169362 0.146978 0.278950 0.345966
O80   O     O_3   0.858059 0.704065 0.772180 -0.749727
H180  H     H_    0.872358 0.702790 0.706245 0.321230

loop_
_geom_bond_atom_site_label_1
_geom_bond_atom_site_label_2
_ccdc_geom_bond_type
C207  H57   S    
C240  C241  S    
C3    O16   A    
C35   C131  A    
C227  H110  S    
C212  H59   S    
Cu6   O22   S    
C9    C169  A    
O68   H168  S    
C34   C42   A    
C64   O52   S    
C234  H136  S    
C213  C214  S    
C181  C187  A    
C104  O60   S    
C243  C244  S    
C27   C99   A    
C85   C182  S    
C208  H54   S    
C170  C178  A    
C132  O80   S    
C85   O25   A    
C12   C174  A    
C229  C230  S    
C42   C109  A    
C24   C96   A    
C219  H84   S    
C87   O27   A    
C30   C38   A    
C66   O54   S    
C169  C177  A    
Cu3   Cu8   S    
C243  H156  S    
Cu1   Cu6   S    
Cu11  O41   S    
C219  C220  S    
C110  C228  S    
C199  H34   S    
C147  C155  A    
Cu6   O14   S    
C224  H88   S    
C143  C151  A    
C90   C177  S    
C231  H128  S    
Cu11  Cu12  S    
C247  C248  S    
C11   C167  A    
C82   C98   A    
C76   C84   A    
C73   C81   A    
C210  H64   S    
C161  C163  A    
C246  H163  S    
Cu11  O36   S    
C162  C164  A    
C90   O30   A    
C84   C100  A    
Cu4   Cu7   S    
C189  H14   S    
C121  C129  A    
C236  H132  S    
C37   C114  A    
C27   C35   A    
C10   C171  A    
C55   C133  S    
C21   C29   A    
C2    O13   A    
C81   C121  A    
C23   C31   A    
C24   C32   A    
C226  H113  S    
C211  H61   S    
C247  H162  S    
C6    O9    A    
C186  C216  S    
C15   H3    S    
C238  H140  S    
C146  C154  A    
Cu10  O39   S    
C192  H21   S    
C152  C201  S    
Cu8   O16   S    
C67   O55   S    
C63   C71   A    
C194  H17   S    
O51   H95   S    
C240  H150  S    
C36   C44   A    
C202  C203  S    
C134  O42   A    
O52   H96   S    
C139  O37   A    
Cu12  O34   S    
C2    O18   A    
C175  C183  A    
C58   C140  S    
C176  C184  A    
C8    C71   S    
C48   C96   A    
C190  H13   S    
C191  H10   S    
C5    C70   S    
C56   C134  S    
Cu5   O5    S    
O57   H101  S    
C148  C162  A    
C135  O33   A    
Cu2   O2    S    
C183  C188  A    
C223  H90   S    
C108  C116  A    
O79   H179  S    
C21   C93   A    
C78   C94   A    
C137  O39   A    
Cu9   O37   S    
C217  C218  S    
C198  H35   S    
C112  C234  S    
C197  H24   S    
C205  H47   S    
C49   C97   A    
C21   C42   A    
C22   C41   A    
C226  H112  S    
C51   C107  A    
C193  H20   S    
C221  H79   S    
C24   C43   A    
C235  H133  S    
C222  H92   S    
C244  H155  S    
C225  C226  S    
C16   H4    S    
Cu3   O27   S    
C82   C122  A    
C161  C165  A    
C17   C175  A    
C60   C138  S    
C18   C176  A    
C6    C69   S    
C209  H52   S    
C218  H72   S    
C29   C125  A    
O62   H106  S    
C69   C77   A    
C228  C229  S    
C53   C135  S    
C31   C127  A    
C45   C93   A    
C174  C182  A    
C71   C79   A    
O61   H105  S    
C217  H76   S    
C233  H124  S    
C188  C222  S    
C242  H144  S    
C62   C70   A    
C11   C176  A    
C17   C144  A    
C140  O38   A    
C1    C74   S    
Cu7   O31   S    
C18   C143  A    
C78   C118  A    
C244  H154  S    
C149  C151  A    
Cu12  O43   S    
C214  H68   S    
C66   C74   A    
C49   C57   A    
C124  C132  A    
C189  C190  S    
Cu4   O4    S    
C52   C60   A    
C59   C67   A    
C111  C231  S    
C113  C237  S    
C141  C159  A    
C20   C174  A    
Cu8   O24   S    
C23   C95   A    
C55   C63   A    
C153  C198  S    
C86   C181  S    
C65   O53   S    
C87   O8    A    
C56   C64   A    
C220  H83   S    
C216  H78   S    
Cu1   O25   S    
C239  H139  S    
Cu10  O46   S    
C45   C53   A    
O71   H171  S    
C22   C94   A    
C171  C179  A    
C229  H119  S    
C149  C210  S    
C201  H42   S    
C200  H30   S    
C206  H45   S    
C50   C98   A    
C28   C36   A    
C7    C72   S    
C104  C112  A    
C244  C245  S    
C145  C163  A    
C195  H28   S    
C14   C147  A    
C52   C100  A    
C225  H114  S    
C16   C145  A    
C178  C186  A    
C25   C38   A    
C233  H123  S    
C46   C94   A    
C27   C40   A    
C10   C166  A    
Cu5   O29   S    
C91   C180  S    
C248  H158  S    
C182  C188  A    
C89   C178  S    
Cu6   O30   S    
C134  O36   A    
C226  C227  S    
C2    C73   S    
C7    O12   A    
C25   C97   A    
C230  H118  S    
C129  O77   S    
C196  H26   S    
C6    O22   A    
C67   C75   A    
C213  H71   S    
C241  H148  S    
O78   H178  S    
C133  O41   A    
C128  O76   S    
C228  H121  S    
C50   C106  A    
C156  C189  S    
C242  H146  S    
C207  H56   S    
C245  H151  S    
C92   O32   A    
C22   C30   A    
C215  H66   S    
Cu2   O18   S    
Cu7   O7    S    
C20   C141  A    
C154  C195  S    
C136  O44   A    
C135  O43   A    
C211  C212  S    
C234  H135  S    
C90   O1    A    
O72   H172  S    
C218  H74   S    
C4    O15   A    
C141  C149  A    
C184  C187  A    
C208  H55   S    
C83   C123  A    
C32   C128  A    
C17   H5    S    
C190  C191  S    
C144  C152  A    
C8    O11   A    
O59   H103  S    
C14   H2    S    
Cu5   O13   S    
C62   O50   S    
C221  H81   S    
C5    O21   A    
C202  H40   S    
Cu9   Cu10  S    
C203  H39   S    
C239  H137  S    
Cu11  O44   S    
C13   C171  A    
C215  H67   S    
C204  H49   S    
C237  C238  S    
Cu3   O3    S    
C101  O57   S    
C196  C197  S    
C194  H16   S    
C117  C125  A    
C232  H126  S    
O76   H176  S    
C25   C33   A    
C126  O74   S    
C224  H87   S    
C119  C127  A    
C88   O7    A    
C246  C247  S    
Cu5   O21   S    
C157  C167  A    
C210  H63   S    
C34   C130  A    
C158  C168  A    
O50   H94   S    
C7    O23   A    
C150  C207  S    
C86   O26   A    
C164  C165  A    
C20   H8    S    
O75   H175  S    
Cu8   O8    S    
C236  H131  S    
C40   C115  A    
C101  C109  A    
C200  H32   S    
C177  C185  A    
C235  C236  S    
C57   C139  S    
C103  C111  A    
C212  H58   S    
C223  C224  S    
C4    C75   S    
C211  H62   S    
Cu2   Cu5   S    
Cu12  O42   S    
C162  C166  A    
C238  H141  S    
C222  C223  S    
Cu9   O48   S    
Cu1   O9    S    
C79   C119  A    
C197  H23   S    
C153  C155  A    
C154  C156  A    
C172  C180  A    
C124  O72   S    
C125  O73   S    
C173  C181  A    
C157  C159  A    
C83   C99   A    
O67   H167  S    
C227  H111  S    
C158  C160  A    
C240  H149  S    
C74   C82   A    
Cu2   O10   S    
Cu4   O28   S    
C102  O58   S    
C192  H22   S    
C137  O45   A    
C47   C103  A    
C120  O68   S    
C85   O6    A    
C204  C205  S    
C50   C58   A    
C89   O29   A    
O80   H180  S    
C163  C166  A    
C147  C161  A    
C216  C217  S    
C179  C186  A    
C38   C113  A    
C114  C240  S    
C49   C105  A    
C54   C62   A    
C28   C39   A    
C219  H85   S    
C231  C232  S    
C23   C44   A    
C1    O14   A    
C107  O63   S    
C139  O47   A    
C234  C235  S    
C19   C173  A    
C79   C95   A    
C92   C179  S    
C15   C146  A    
C243  H157  S    
C5    O10   A    
C192  C193  S    
C46   C54   A    
C130  O78   S    
C199  H33   S    
C228  H122  S    
C45   C101  A    
C231  H129  S    
C19   C142  A    
C235  H134  S    
C102  C110  A    
C68   C76   A    
C187  C219  S    
C3    O19   A    
C246  H164  S    
Cu11  O33   S    
C61   O49   S    
O53   H97   S    
C1    O17   A    
C36   C132  A    
C123  C131  A    
C118  O66   S    
C189  H15   S    
C57   C65   A    
C105  O61   S    
Cu6   O6    S    
O58   H102  S    
C120  C128  A    
C26   C37   A    
C10   C170  A    
C136  O34   A    
C33   C41   A    
C142  C150  A    
C245  H152  S    
C210  C211  S    
Cu1   O1    S    
C247  H161  S    
C75   C83   A    
Cu10  O38   S    
C214  H69   S    
C103  O59   S    
C77   C93   A    
C4    O20   A    
C230  H116  S    
C209  H51   S    
C44   C111  A    
C16   C170  A    
C241  C242  S    
C60   C68   A    
C72   C80   A    
C39   C116  A    
C194  H18   S    
C29   C37   A    
C227  H109  S    
C123  O71   S    
C9    C172  A    
C148  C156  A    
C216  H77   S    
C138  O46   A    
O60   H104  S    
C193  C194  S    
C239  H138  S    
Cu10  O47   S    
C30   C126  A    
C70   C78   A    
C108  O64   S    
C201  C202  S    
C229  H120  S    
C190  H12   S    
C117  O65   S    
C203  H37   S    
C191  H11   S    
C237  H142  S    
O56   H100  S    
C206  H44   S    
C198  H36   S    
C46   C102  A    
O73   H173  S    
C63   O51   S    
C106  C114  A    
O77   H177  S    
C77   C117  A    
C223  H89   S    
C160  C167  A    
C59   C137  S    
O70   H170  S    
C48   C104  A    
C65   C73   A    
C159  C168  A    
C15   C169  A    
C222  H91   S    
O69   H169  S    
C197  H25   S    
C232  C233  S    
C200  H31   S    
C127  O75   S    
C58   C66   A    
C68   O56   S    
C215  H65   S    
C31   C39   A    
C241  H147  S    
C105  C113  A    
O66   H166  S    
C122  O70   S    
Cu2   O26   S    
C80   C96   A    
O65   H165  S    
C213  H70   S    
C28   C100  A    
C116  C246  S    
C32   C40   A    
C238  C239  S    
C209  H53   S    
Cu9   O45   S    
C218  H73   S    
C196  H27   S    
C19   H7    S    
C220  C221  S    
C53   C61   A    
C26   C34   A    
C217  H75   S    
C143  C157  A    
C233  H125  S    
C242  H145  S    
C51   C99   A    
C88   O28   A    
C11   C173  A    
O74   H174  S    
C9    C165  A    
C146  C164  A    
C14   C172  A    
C245  H153  S    
Cu3   O11   S    
C87   C184  S    
C88   C183  S    
C248  H160  S    
C237  H143  S    
C131  O79   S    
C193  H19   S    
C208  C209  S    
O64   H108  S    
C54   C136  S    
Cu7   O23   S    
C220  H82   S    
C221  H80   S    
C202  H41   S    
C121  O69   S    
C3    C76   S    
C203  H38   S    
Cu12  O35   S    
C107  C115  A    
O49   H93   S    
C205  H48   S    
C26   C98   A    
C12   C175  A    
C140  O48   A    
C33   C129  A    
C41   C110  A    
C198  C199  S    
C212  H60   S    
C150  C152  A    
C80   C120  A    
C51   C59   A    
C43   C112  A    
Cu4   O12   S    
C144  C158  A    
C191  H9    S    
C232  H127  S    
C201  H43   S    
C35   C43   A    
C205  C206  S    
C115  C243  S    
C47   C55   A    
C224  H86   S    
Cu8   O32   S    
C206  H46   S    
C61   C69   A    
C48   C56   A    
Cu3   O19   S    
Cu1   O17   S    
C142  C160  A    
C91   O4    A    
C12   C168  A    
C89   O2    A    
C84   C124  A    
C109  C225  S    
C195  H29   S    
Cu9   O40   S    
C151  C204  S    
C225  H115  S    
C18   H6    S    
C199  C200  S    
C86   O5    A    
C145  C153  A    
C133  O35   A    
Cu7   O15   S    
C8    O24   A    
C236  H130  S    
O55   H99   S    
C81   C97   A    
C248  H159  S    
C13   H1    S    
O63   H107  S    
C64   C72   A    
C207  C208  S    
C185  C213  S    
C138  O40   A    
C180  C185  A    
Cu4   O20   S    
C52   C108  A    
C230  H117  S    
C214  C215  S    
C91   O31   A    
C47   C95   A    
C119  O67   S    
C92   O3    A    
C204  H50   S    
C118  C126  A    
C13   C148  A    
C195  C196  S    
C122  C130  A    
C155  C192  S    
C106  O62   S    
O54   H98   S    
