data_str_m3_o40_o41_f0_fof.sym.184
_audit_creation_date              2013-03-05T15:41:02-0500
_audit_creation_method            fapswitch 2.2
_symmetry_space_group_name_H-M    P1
_symmetry_Int_Tables_number       1
_space_group_crystal_system       triclinic
_cell_length_a                    28.084743
_cell_length_b                    18.470416
_cell_length_c                    16.959375
_cell_angle_alpha                 90.798176
_cell_angle_beta                  61.436819
_cell_angle_gamma                 89.857465
_cell_volume                      7725.54998775

loop_
_atom_site_label
_atom_site_type_symbol
_atom_site_description
_atom_site_fract_x
_atom_site_fract_y
_atom_site_fract_z
_atom_type_partial_charge
O1    O     O_R   0.746490 0.236330 0.638080 -0.629370
O2    O     O_R   0.253510 0.763670 0.361920 -0.632317
O3    O     O_R   0.253510 0.236330 0.361920 -0.661337
O4    O     O_R   0.746490 0.763670 0.638080 -0.654976
O5    O     O_R   0.246490 0.736330 0.638080 -0.632050
O6    O     O_R   0.753510 0.263670 0.361920 -0.630097
O7    O     O_R   0.753510 0.736330 0.361920 -0.653795
O8    O     O_R   0.246490 0.263670 0.638080 -0.657814
O9    O     O_R   0.674170 0.186160 0.516270 -0.600025
O10   O     O_R   0.325830 0.813840 0.483730 -0.600905
O11   O     O_R   0.325830 0.186160 0.483730 -0.617215
O12   O     O_R   0.674170 0.813840 0.516270 -0.615205
O13   O     O_R   0.174170 0.686160 0.516270 -0.601561
O14   O     O_R   0.825830 0.313840 0.483730 -0.597780
O15   O     O_R   0.825830 0.686160 0.483730 -0.615592
O16   O     O_R   0.174170 0.313840 0.516270 -0.598545
O17   O     O_R   0.739960 0.127620 0.525000 -0.649710
O18   O     O_R   0.260040 0.872380 0.475000 -0.648587
O19   O     O_R   0.260040 0.127620 0.475000 -0.641710
O20   O     O_R   0.739960 0.872380 0.525000 -0.631447
O21   O     O_R   0.239960 0.627620 0.525000 -0.645767
O22   O     O_R   0.760040 0.372380 0.475000 -0.646921
O23   O     O_R   0.760040 0.627620 0.475000 -0.630364
O24   O     O_R   0.239960 0.372380 0.525000 -0.624967
O25   O     O_R   0.680700 0.294870 0.629350 -0.553410
O26   O     O_R   0.319300 0.705130 0.370650 -0.553958
O27   O     O_R   0.319300 0.294870 0.370650 -0.536270
O28   O     O_R   0.680700 0.705130 0.629350 -0.540354
O29   O     O_R   0.180700 0.794870 0.629350 -0.555130
O30   O     O_R   0.819300 0.205130 0.370650 -0.554335
O31   O     O_R   0.819300 0.794870 0.370650 -0.541052
O32   O     O_R   0.180700 0.205130 0.629350 -0.541572
C1    C     C_R   0.699683 0.263499 0.677406 0.948636
C2    C     C_R   0.300000 0.735841 0.322799 0.952776
C3    C     C_R   0.299415 0.265643 0.322778 0.929766
C4    C     C_R   0.704665 0.724936 0.674421 0.930094
C5    C     C_R   0.200011 0.764178 0.677204 0.952187
C6    C     C_R   0.799908 0.236269 0.322854 0.956134
C7    C     C_R   0.795301 0.775117 0.325606 0.930829
C8    C     C_R   0.205008 0.224682 0.674150 0.932200
C9    C     C_R   0.697224 0.127435 0.515838 0.941434
C10   C     C_R   0.302704 0.872563 0.484320 0.943813
C11   C     C_R   0.309062 0.129346 0.463173 0.906558
C12   C     C_R   0.690926 0.870653 0.536798 0.924552
C13   C     C_R   0.197229 0.627430 0.515837 0.944184
C14   C     C_R   0.802614 0.372553 0.484605 0.948173
C15   C     C_R   0.809030 0.629325 0.463304 0.925414
C16   C     C_R   0.190927 0.370643 0.536833 0.942556
Zn1   Zn    Zn3+2 0.792340 0.208750 0.507670 1.048252
Zn2   Zn    Zn3+2 0.207660 0.791250 0.492330 1.043269
Zn3   Zn    Zn3+2 0.207660 0.208750 0.492330 1.037952
Zn4   Zn    Zn3+2 0.792340 0.791250 0.507670 1.040461
Zn5   Zn    Zn3+2 0.292340 0.708750 0.507670 1.048227
Zn6   Zn    Zn3+2 0.707660 0.291250 0.492330 1.051673
Zn7   Zn    Zn3+2 0.707660 0.708750 0.492330 1.043495
Zn8   Zn    Zn3+2 0.292340 0.291250 0.507670 1.044383
H1    H     H_    0.982917 0.289711 0.670990 0.204430
H2    H     H_    0.017117 0.709599 0.328588 0.199260
H3    H     H_    0.900983 0.294412 0.660101 0.190226
H4    H     H_    0.098971 0.705066 0.339866 0.185233
H5    H     H_    0.482645 0.790138 0.671599 0.199529
H6    H     H_    0.517068 0.209893 0.328578 0.201069
H7    H     H_    0.400731 0.794838 0.660472 0.185552
H8    H     H_    0.598829 0.205517 0.340316 0.186955
C17   C     C_R   0.578168 0.108359 0.420535 0.062889
C18   C     C_R   0.421433 0.891880 0.580107 0.062688
C19   C     C_R   0.481760 0.112941 0.406000 0.045072
C20   C     C_R   0.518040 0.887026 0.594043 0.043460
C21   C     C_R   0.078245 0.608162 0.420451 0.062118
C22   C     C_R   0.921406 0.391747 0.580360 0.059937
C23   C     C_R   0.981675 0.612877 0.406428 0.043487
C24   C     C_R   0.018110 0.386875 0.593976 0.042519
C25   C     C_R   0.569528 0.163065 0.371844 -0.166474
C26   C     C_R   0.430085 0.837190 0.628761 -0.166374
C27   C     C_R   0.521984 0.165627 0.365220 -0.159651
C28   C     C_R   0.477743 0.834447 0.635016 -0.159796
C29   C     C_R   0.069610 0.662752 0.371679 -0.165856
C30   C     C_R   0.930223 0.336904 0.628609 -0.161913
C31   C     C_R   0.021984 0.665403 0.365340 -0.159074
C32   C     C_R   0.977916 0.334156 0.634710 -0.153163
C33   C     C_R   0.490356 0.057257 0.454541 0.016147
C34   C     C_R   0.509366 0.942828 0.545766 0.016593
C35   C     C_R   0.538170 0.055422 0.462614 0.019485
C36   C     C_R   0.461496 0.944735 0.537859 0.019788
C37   C     C_R   0.990281 0.557210 0.454923 0.017015
C38   C     C_R   0.009344 0.442782 0.545966 0.018780
C39   C     C_R   0.038165 0.555337 0.462788 0.020034
C40   C     C_R   0.961420 0.444701 0.538218 0.021116
C41   C     C_R   0.952150 0.501699 0.492415 -0.041992
C42   C     C_R   0.047422 0.498357 0.508646 -0.041534
C43   C     C_R   0.452274 0.001706 0.491916 -0.043109
C44   C     C_R   0.547434 0.998400 0.508463 -0.043126
C45   C     C_R   0.868590 0.444420 0.515015 0.009729
C46   C     C_R   0.130971 0.555605 0.486064 0.009773
C47   C     C_R   0.106493 0.438356 0.557756 0.008697
C48   C     C_R   0.893248 0.561518 0.442891 0.004134
C49   C     C_R   0.368773 0.944460 0.514397 0.009195
C50   C     C_R   0.630907 0.055683 0.486117 0.010280
C51   C     C_R   0.606486 0.938397 0.557652 0.004285
C52   C     C_R   0.393386 0.061527 0.442315 0.006681
C53   C     C_R   0.828476 0.439538 0.486860 -0.075119
C54   C     C_R   0.171189 0.560461 0.514004 -0.073534
C55   C     C_R   0.158158 0.436562 0.554517 -0.083980
C56   C     C_R   0.841645 0.563348 0.446008 -0.076845
C57   C     C_R   0.328639 0.939554 0.486301 -0.073898
C58   C     C_R   0.671166 0.060489 0.513987 -0.074258
C59   C     C_R   0.658165 0.936579 0.554393 -0.076397
C60   C     C_R   0.341754 0.063380 0.445536 -0.072252
C61   C     C_R   0.814479 0.499760 0.455215 -0.277863
C62   C     C_R   0.185227 0.500218 0.545563 -0.276867
C63   C     C_R   0.314624 0.999765 0.454649 -0.283251
C64   C     C_R   0.685248 0.000217 0.545419 -0.282815
H9    H     H_    0.779623 0.498701 0.443830 0.196289
H10   H     H_    0.220121 0.501283 0.556844 0.195695
H11   H     H_    0.279747 0.998700 0.443322 0.193730
H12   H     H_    0.720162 0.001266 0.556646 0.195777
C65   C     C_R   0.904964 0.502483 0.483090 -0.009098
C66   C     C_R   0.094629 0.497536 0.517938 -0.006853
C67   C     C_R   0.405125 0.002494 0.482493 -0.010814
C68   C     C_R   0.594618 0.997577 0.517838 -0.010679
C69   C     C_R   0.066277 0.385579 0.601227 0.211232
C70   C     C_R   0.933579 0.614044 0.398961 0.212623
C71   C     C_R   0.873214 0.395222 0.574240 0.206733
C72   C     C_R   0.126391 0.604662 0.426701 0.208458
C73   C     C_R   0.566205 0.885752 0.601353 0.211712
C74   C     C_R   0.433721 0.114019 0.398308 0.211354
C75   C     C_R   0.373310 0.895413 0.573801 0.207212
C76   C     C_R   0.626261 0.104833 0.426917 0.207451
C77   C     C_R   0.710375 0.248912 0.964395 0.044955
C78   C     C_R   0.282412 0.739426 0.042964 0.041850
C79   C     C_R   0.291093 0.243908 0.035196 0.038915
C80   C     C_R   0.720920 0.730031 0.953814 0.035671
C81   C     C_R   0.217787 0.760945 0.956890 0.042021
C82   C     C_R   0.769855 0.218731 0.056933 0.045997
C83   C     C_R   0.778814 0.770551 0.046385 0.035744
C84   C     C_R   0.230234 0.212026 0.945370 0.038919
C85   C     C_R   0.752726 0.197010 0.928667 0.048771
C86   C     C_R   0.233389 0.779547 0.087012 0.057057
C87   C     C_R   0.240593 0.208927 0.080599 0.050711
C88   C     C_R   0.776952 0.746410 0.904731 0.047553
C89   C     C_R   0.266826 0.720856 0.912827 0.056058
C90   C     C_R   0.728703 0.272226 0.090894 0.051994
C91   C     C_R   0.722780 0.754174 0.095482 0.047704
C92   C     C_R   0.284548 0.235545 0.895914 0.047941
C93   C     C_R   0.778949 0.177148 0.979774 0.047345
C94   C     C_R   0.199913 0.787610 0.045481 0.045628
C95   C     C_R   0.207821 0.200041 0.038421 0.041479
C96   C     C_R   0.805753 0.768514 0.951111 0.038571
C97   C     C_R   0.300303 0.712798 0.954356 0.045442
C98   C     C_R   0.695414 0.281419 0.049464 0.046677
C99   C     C_R   0.693959 0.732127 0.049092 0.037996
C100  C     C_R   0.313472 0.257312 0.942308 0.039952
C101  C     C_R   0.635233 0.311946 0.957539 0.024534
C102  C     C_R   0.362630 0.685929 0.044138 0.024807
C103  C     C_R   0.366823 0.306413 0.041134 0.018949
C104  C     C_R   0.637827 0.686410 0.954140 0.017435
C105  C     C_R   0.137498 0.814279 0.955795 0.024896
C106  C     C_R   0.839239 0.148308 0.072321 0.034334
C107  C     C_R   0.861969 0.813964 0.045993 0.013831
C108  C     C_R   0.144497 0.175446 0.950383 0.021474
C109  C     C_R   0.609510 0.335281 0.906589 -0.234858
C110  C     C_R   0.389692 0.664225 0.093712 -0.230750
C111  C     C_R   0.390106 0.335719 0.093581 -0.239029
C112  C     C_R   0.611705 0.661027 0.904955 -0.228579
C113  C     C_R   0.110374 0.835857 0.906269 -0.230344
C114  C     C_R   0.875706 0.142714 0.109119 -0.245364
C115  C     C_R   0.888168 0.839151 0.095127 -0.222741
C116  C     C_R   0.115281 0.156810 0.903581 -0.231699
C117  C     C_R   0.625331 0.306525 0.821221 0.226654
C118  C     C_R   0.374102 0.693363 0.178695 0.227075
C119  C     C_R   0.372412 0.312354 0.181094 0.243700
C120  C     C_R   0.630729 0.681583 0.816875 0.244623
C121  C     C_R   0.125937 0.806662 0.821326 0.226011
C122  C     C_R   0.869000 0.186405 0.181409 0.221232
C123  C     C_R   0.869177 0.818519 0.183162 0.244066
C124  C     C_R   0.132719 0.180770 0.817369 0.228249
C125  C     C_R   0.673684 0.267540 0.777033 -0.226754
C126  C     C_R   0.325001 0.730552 0.223834 -0.229730
C127  C     C_R   0.325100 0.271536 0.223974 -0.240451
C128  C     C_R   0.684130 0.705814 0.768571 -0.249398
C129  C     C_R   0.175053 0.769522 0.776162 -0.229220
C130  C     C_R   0.822608 0.227839 0.224776 -0.210590
C131  C     C_R   0.815768 0.794339 0.231503 -0.251241
C132  C     C_R   0.186299 0.203762 0.767136 -0.244449
C133  C     C_R   0.699428 0.241145 0.827624 0.067499
C134  C     C_R   0.296742 0.752796 0.175692 0.068769
C135  C     C_R   0.299750 0.244081 0.173383 0.034666
C136  C     C_R   0.716769 0.712726 0.812512 0.025263
C137  C     C_R   0.203373 0.747393 0.824257 0.068457
C138  C     C_R   0.792791 0.246435 0.178253 0.068255
C139  C     C_R   0.783065 0.787578 0.187643 0.024467
C140  C     C_R   0.221094 0.207423 0.807746 0.027038
C141  C     C_R   0.681782 0.267435 0.916243 0.082989
C142  C     C_R   0.313916 0.726020 0.087696 0.081323
C143  C     C_R   0.319293 0.264916 0.083296 0.080169
C144  C     C_R   0.691664 0.710647 0.907014 0.084713
C145  C     C_R   0.186237 0.774246 0.912211 0.081221
C146  C     C_R   0.801134 0.205273 0.101681 0.095870
C147  C     C_R   0.808115 0.789801 0.093153 0.083171
C148  C     C_R   0.198444 0.199122 0.901324 0.081979
C149  C     C_R   0.614694 0.328612 0.050055 -0.112428
C150  C     C_R   0.383761 0.671974 0.951167 -0.113490
C151  C     C_R   0.390251 0.314919 0.947307 -0.119863
C152  C     C_R   0.611895 0.688105 0.048273 -0.121554
C153  C     C_R   0.116407 0.828293 0.048749 -0.113443
C154  C     C_R   0.839444 0.099424 0.007138 -0.131273
C155  C     C_R   0.887855 0.812377 0.951862 -0.127218
C156  C     C_R   0.121489 0.171454 0.044390 -0.120380
C157  C     C_R   0.645527 0.317981 0.093048 -0.217241
C158  C     C_R   0.352917 0.683114 0.908085 -0.213194
C159  C     C_R   0.364144 0.291596 0.899345 -0.198227
C160  C     C_R   0.639078 0.710642 0.094634 -0.195647
C161  C     C_R   0.147295 0.817270 0.091772 -0.215000
C162  C     C_R   0.812029 0.115120 0.959296 -0.203017
C163  C     C_R   0.860622 0.790025 0.905539 -0.201087
C164  C     C_R   0.152640 0.182063 0.087215 -0.209972
C165  C     C_R   0.740476 0.187126 0.795111 -0.114103
C166  C     C_R   0.253306 0.803360 0.210175 -0.105669
C167  C     C_R   0.256796 0.193843 0.207635 -0.139145
C168  C     C_R   0.773470 0.720201 0.765855 -0.146524
C169  C     C_R   0.246846 0.696885 0.789762 -0.102618
C170  C     C_R   0.754847 0.303930 0.205679 -0.104924
C171  C     C_R   0.726364 0.780075 0.234356 -0.147137
C172  C     C_R   0.277698 0.218151 0.758807 -0.145991
C173  C     C_R   0.766568 0.166035 0.843848 -0.206845
C174  C     C_R   0.221437 0.814498 0.168738 -0.206281
C175  C     C_R   0.225938 0.180333 0.165116 -0.219836
C176  C     C_R   0.802695 0.737127 0.810524 -0.205436
C177  C     C_R   0.278769 0.685870 0.831125 -0.203932
C178  C     C_R   0.722829 0.315634 0.164246 -0.204486
C179  C     C_R   0.697088 0.763298 0.189711 -0.204601
C180  C     C_R   0.308188 0.234415 0.801701 -0.208296
H13   H     H_    0.573858 0.347747 0.092714 0.202174
H14   H     H_    0.425277 0.655201 0.908570 0.200117
H15   H     H_    0.430204 0.336882 0.907982 0.196275
H16   H     H_    0.569501 0.674691 0.087478 0.193855
H17   H     H_    0.074882 0.844996 0.091401 0.200465
H18   H     H_    0.859806 0.047496 0.992511 0.174090
H19   H     H_    0.930263 0.825690 0.912598 0.196938
H20   H     H_    0.078652 0.162625 0.086732 0.190474
H21   H     H_    0.627934 0.334587 0.162843 0.147667
H22   H     H_    0.372173 0.670739 0.837009 0.146122
H23   H     H_    0.384106 0.302978 0.828563 0.150093
H24   H     H_    0.615908 0.709063 0.166714 0.151197
H25   H     H_    0.128058 0.829681 0.162838 0.145829
H26   H     H_    0.815458 0.075938 0.908965 0.141992
H27   H     H_    0.883753 0.791735 0.833462 0.151336
H28   H     H_    0.132123 0.178903 0.159607 0.153757
H29   H     H_    0.751569 0.156985 0.733800 0.169930
H30   H     H_    0.244141 0.837903 0.267525 0.167546
H31   H     H_    0.246848 0.161520 0.265689 0.176849
H32   H     H_    0.796788 0.710264 0.694409 0.175436
H33   H     H_    0.256004 0.662284 0.732463 0.169203
H34   H     H_    0.750415 0.341994 0.257800 0.163182
H35   H     H_    0.703087 0.789842 0.305841 0.175307
H36   H     H_    0.300166 0.212335 0.686730 0.179350
H37   H     H_    0.798584 0.126081 0.812364 0.142039
H38   H     H_    0.188802 0.853635 0.200246 0.137005
H39   H     H_    0.192360 0.143556 0.197122 0.143901
H40   H     H_    0.845907 0.741176 0.768853 0.145975
H41   H     H_    0.311430 0.646772 0.799598 0.139179
H42   H     H_    0.694915 0.361111 0.188455 0.142938
H43   H     H_    0.653884 0.759169 0.231426 0.145821
H44   H     H_    0.350935 0.243238 0.759167 0.147523
O33   O     O_R   0.062020 0.072840 0.007170 -0.646444
O34   O     O_R   0.937980 0.927160 0.992830 -0.662689
O35   O     O_R   0.937980 0.072840 0.992830 -0.634221
O36   O     O_R   0.062020 0.927160 0.007170 -0.645148
O37   O     O_R   0.562020 0.572840 0.007170 -0.642331
O38   O     O_R   0.437980 0.427160 0.992830 -0.648031
O39   O     O_R   0.437980 0.572840 0.992830 -0.644088
O40   O     O_R   0.562020 0.427160 0.007170 -0.644904
O41   O     O_R   0.947860 0.073950 0.109290 -0.562741
O42   O     O_R   0.052140 0.926050 0.890710 -0.554734
O43   O     O_R   0.052140 0.073950 0.890710 -0.537405
O44   O     O_R   0.947860 0.926050 0.109290 -0.551317
O45   O     O_R   0.447860 0.573950 0.109290 -0.551625
O46   O     O_R   0.552140 0.426050 0.890710 -0.553771
O47   O     O_R   0.552140 0.573950 0.890710 -0.545185
O48   O     O_R   0.447860 0.426050 0.109290 -0.539452
C181  C     C_R   0.072222 0.102590 0.936861 0.960850
C182  C     C_R   0.929236 0.896017 0.062066 0.912092
C183  C     C_R   0.922000 0.094339 0.069973 0.946798
C184  C     C_R   0.071013 0.895948 0.937121 0.931964
C185  C     C_R   0.570714 0.604035 0.937978 0.930438
C186  C     C_R   0.428684 0.396361 0.062679 0.931024
C187  C     C_R   0.429014 0.604079 0.062861 0.932601
C188  C     C_R   0.570906 0.396008 0.937109 0.931451
Zn9   Zn    Zn3+2 0.505960 0.500000 0.080520 1.076426
Zn10  Zn    Zn3+2 0.494040 0.500000 0.919480 1.069956
Zn11  Zn    Zn3+2 0.005960 0.000000 0.080520 1.065196
Zn12  Zn    Zn3+2 0.994040 0.000000 0.919480 1.076372
Br1   Br    Br    0.070795 0.324864 0.688623 -0.423942
Br2   Br    Br    0.929318 0.673848 0.310547 -0.433696
Br3   Br    Br    0.808608 0.355218 0.670168 -0.537172
Br4   Br    Br    0.191133 0.643666 0.330334 -0.537121
Br5   Br    Br    0.570625 0.825594 0.689315 -0.437026
Br6   Br    Br    0.429555 0.173406 0.309387 -0.459003
Br7   Br    Br    0.308536 0.856513 0.670133 -0.543601
Br8   Br    Br    0.690960 0.143490 0.330484 -0.551699
N1    N     N_R   0.590212 0.312936 0.781612 0.217248
O49   O     O_R   0.593692 0.367852 0.731819 -0.346456
O50   O     O_R   0.552804 0.264929 0.799166 -0.404787
N2    N     N_R   0.410122 0.689216 0.216796 0.215962
O51   O     O_R   0.407833 0.635323 0.267176 -0.344038
O52   O     O_R   0.448439 0.736587 0.194443 -0.407678
N3    N     N_R   0.403582 0.329883 0.225823 0.245978
O53   O     O_R   0.390493 0.386949 0.278368 -0.346166
O54   O     O_R   0.452671 0.303986 0.192655 -0.370547
N4    N     N_R   0.595095 0.676315 0.777930 0.248378
O55   O     O_R   0.602031 0.623474 0.721617 -0.345075
O56   O     O_R   0.547281 0.706517 0.820876 -0.372869
N5    N     N_R   0.089871 0.810690 0.783304 0.216884
O57   O     O_R   0.092103 0.864523 0.732885 -0.349811
O58   O     O_R   0.051520 0.763343 0.805882 -0.404674
N6    N     N_R   0.909559 0.190801 0.210274 0.217423
O59   O     O_R   0.913045 0.140966 0.260910 -0.351327
O60   O     O_R   0.935316 0.251209 0.200783 -0.388358
N7    N     N_R   0.904866 0.823597 0.222016 0.249402
O61   O     O_R   0.898065 0.876404 0.278300 -0.350332
O62   O     O_R   0.952605 0.793191 0.179058 -0.369348
N8    N     N_R   0.094689 0.181967 0.783019 0.245501
O63   O     O_R   0.097658 0.131866 0.725961 -0.340540
O64   O     O_R   0.048338 0.214886 0.830827 -0.345492

loop_
_geom_bond_atom_site_label_1
_geom_bond_atom_site_label_2
_geom_bond_distance
_ccdc_geom_bond_type
N8    O64   1.301797 A    
O4    C4    1.263202 A    
C163  H27   1.076592 S    
O5    C5    1.252079 A    
C59   C64   1.371878 A    
C23   C70   1.415827 A    
H1    C32   1.080901 S    
O7    Zn7   2.029883 S    
O31   Zn4   2.073587 S    
C151  C159  1.395331 A    
O8    Zn8   2.029883 S    
O33   C181  1.223999 A    
N1    O49   1.302662 A    
C138  C146  1.414201 A    
C165  H29   1.077681 S    
C112  C185  1.467300 S    
C118  C126  1.389476 A    
C83   C147  1.431937 A    
C38   C40   1.413908 A    
O30   C6    1.310736 A    
C149  C157  1.388140 A    
C86   C174  1.406987 A    
O20   C12   1.293969 A    
C36   C43   1.412776 A    
C49   C57   1.420768 A    
C154  C162  1.392122 A    
C91   C99   1.428856 A    
C25   C27   1.393216 A    
O38   C186  1.232404 A    
C76   Br8   1.919240 S    
C136  C168  1.407186 A    
C101  C149  1.417570 A    
C29   C31   1.392984 A    
N4    O56   1.301779 A    
C114  C122  1.393066 A    
C52   C60   1.425073 A    
C105  C153  1.413494 A    
C97   C158  1.405336 A    
C158  H22   1.079844 S    
C38   C42   1.405074 A    
C45   C53   1.420933 A    
O27   C3    1.298197 A    
C101  C109  1.435298 A    
N6    O59   1.302425 A    
C150  H14   1.078810 S    
C5    C129  1.479126 S    
C152  C160  1.393105 A    
C154  H18   1.078644 S    
C50   C68   1.406124 A    
H2    C31   1.081020 S    
O30   Zn1   2.071377 S    
C34   C36   1.413836 A    
C168  H32   1.079413 S    
H6    C27   1.081363 S    
C164  H28   1.080926 S    
C105  C113  1.436779 A    
C78   C86   1.413790 A    
C139  C171  1.407285 A    
C172  H36   1.078111 S    
C123  C131  1.399693 A    
C137  C145  1.412214 A    
C124  C132  1.399242 A    
C81   C145  1.437288 A    
C15   C56   1.462084 S    
C79   C143  1.433073 A    
C45   C71   1.414570 A    
O23   Zn7   2.014767 S    
H7    C26   1.082478 S    
O24   Zn8   2.014767 S    
C96   C163  1.415092 A    
O9    C9    1.259963 A    
O48   Zn9   2.008626 S    
C50   C58   1.421299 A    
C60   C63   1.371843 A    
C152  H16   1.081720 S    
O13   C13   1.260120 A    
O44   C182  1.269797 A    
C106  C146  1.403738 A    
C107  C115  1.424561 A    
C11   C60   1.462441 S    
C140  C148  1.410201 A    
C84   C148  1.430300 A    
C13   C54   1.446020 S    
C93   C162  1.404055 A    
C126  C134  1.446588 A    
C77   C85   1.410640 A    
C40   C41   1.412195 A    
C46   C54   1.421093 A    
O12   C12   1.262048 A    
O33   Zn11  2.005156 S    
O7    C7    1.263079 A    
O34   Zn12  2.005157 S    
O9    Zn6   2.117325 S    
O8    C8    1.258959 A    
C89   C177  1.406960 A    
C166  C174  1.393488 A    
O11   Zn8   2.102614 S    
N7    O62   1.301751 A    
C69   Br1   1.922510 S    
C21   C29   1.404813 A    
O16   Zn3   2.102614 S    
C160  H24   1.076586 S    
C71   Br3   1.924147 S    
C122  C130  1.373741 A    
C23   C31   1.406524 A    
C34   C44   1.404870 A    
O22   Zn6   2.026268 S    
C134  C166  1.413967 A    
C26   C28   1.393147 A    
C55   C62   1.372030 A    
C52   C74   1.413293 A    
C87   C175  1.400315 A    
O35   Zn12  1.976440 S    
O43   Zn12  2.008624 S    
C138  C170  1.409378 A    
C30   C32   1.392734 A    
C116  C181  1.467303 S    
C90   C178  1.411704 A    
O45   Zn9   1.993805 S    
C120  C128  1.399777 A    
C18   C26   1.405023 A    
C120  N4    1.441532 S    
C117  N1    1.439889 S    
C85   C173  1.410275 A    
O2    Zn2   2.012740 S    
H8    C25   1.082612 S    
O6    C6    1.246972 A    
C62   H10   1.084738 S    
C109  C117  1.392059 A    
O34   C182  1.230331 A    
C83   C91   1.420459 A    
C111  C186  1.477340 S    
C113  C184  1.467070 S    
C119  C127  1.399662 A    
C45   C65   1.406968 A    
C114  C183  1.442852 S    
C103  C151  1.412773 A    
H3    C30   1.082158 S    
C117  C125  1.389660 A    
C33   C35   1.413797 A    
C47   C55   1.425830 A    
O21   C13   1.281700 A    
H5    C28   1.081167 S    
C3    C127  1.479738 S    
C14   C53   1.445522 S    
C169  H33   1.077862 S    
C88   C176  1.411348 A    
O23   C15   1.293366 A    
C99   C160  1.415251 A    
C1    C125  1.486593 S    
O24   C16   1.293744 A    
C48   C65   1.412619 A    
C103  C143  1.410052 A    
C156  H20   1.080614 S    
O17   Zn1   2.026268 S    
C103  C111  1.433977 A    
C16   C55   1.462759 S    
C49   C67   1.406230 A    
O37   Zn9   2.005156 S    
O40   Zn9   1.976442 S    
C108  C156  1.408239 A    
O3    C3    1.261358 A    
C52   C67   1.412659 A    
C161  H25   1.079837 S    
C41   C65   1.407749 A    
C19   C33   1.416414 A    
C43   C67   1.407653 A    
C112  C120  1.383688 A    
C19   C27   1.406620 A    
C169  C177  1.393469 A    
C64   H12   1.084739 S    
C115  C123  1.383541 A    
C12   C59   1.462913 S    
C116  C124  1.381231 A    
C179  H43   1.076874 S    
C180  H44   1.079030 S    
C102  C110  1.436710 A    
C176  H40   1.076867 S    
C177  H41   1.079690 S    
C20   C28   1.406787 A    
O41   Zn11  1.993805 S    
C6    C130  1.475008 S    
C20   C34   1.415984 A    
C44   C68   1.408170 A    
C24   C32   1.406483 A    
C118  N2    1.439717 S    
C46   C66   1.406526 A    
O2    C2    1.252166 A    
O42   Zn12  1.993806 S    
C86   C94   1.427454 A    
C107  C147  1.408181 A    
O43   C181  1.273834 A    
O48   C186  1.269693 A    
O12   Zn7   2.102614 S    
C79   C87   1.412811 A    
C153  C161  1.391007 A    
O13   Zn2   2.117325 S    
C101  C141  1.406622 A    
C170  C178  1.398776 A    
C91   C179  1.411419 A    
C72   Br4   1.921909 S    
C20   C73   1.416349 A    
C165  C173  1.399523 A    
C178  H42   1.080754 S    
C24   C69   1.415853 A    
O10   C10   1.260298 A    
C166  H30   1.077876 S    
C4    C128  1.463911 S    
C174  H38   1.079699 S    
O14   C14   1.260229 A    
C108  C116  1.427701 A    
O45   C187  1.272437 A    
O46   C188  1.269727 A    
O47   C185  1.269817 A    
C85   C93   1.430429 A    
C104  C144  1.408220 A    
O6    Zn6   2.012740 S    
C127  C135  1.440133 A    
C53   C61   1.376964 A    
C42   C66   1.408053 A    
C125  C133  1.449033 A    
C168  C176  1.390900 A    
N6    O60   1.300695 A    
O10   Zn5   2.117325 S    
C128  C136  1.436346 A    
C124  N8    1.440782 S    
O44   Zn11  2.008626 S    
C129  C137  1.446698 A    
O19   C11   1.293464 A    
C132  C140  1.440990 A    
C70   Br2   1.923509 S    
C111  C119  1.396265 A    
C21   C39   1.409509 A    
C109  C188  1.463753 S    
C155  H19   1.081670 S    
C110  C187  1.467197 S    
C47   C69   1.413752 A    
C50   C76   1.413941 A    
N8    O63   1.302768 A    
C57   C63   1.377112 A    
C121  C129  1.389394 A    
C167  H31   1.076118 S    
O16   C16   1.262177 A    
C79   C100  1.415212 A    
C102  C150  1.413448 A    
C171  C179  1.391177 A    
N1    O50   1.300600 A    
C123  N7    1.441522 S    
O46   Zn10  1.993806 S    
C9    C58   1.446001 S    
O1    C1    1.254490 A    
N3    O53   1.303410 A    
C106  C154  1.415419 A    
C17   C76   1.407077 A    
C159  H23   1.078685 S    
O25   Zn6   2.071377 S    
C140  C172  1.414128 A    
C51   C73   1.413641 A    
C19   C74   1.416306 A    
C37   C41   1.405291 A    
O27   Zn8   2.073587 S    
C58   C64   1.376885 A    
C21   C72   1.407326 A    
C157  H21   1.081291 S    
O32   Zn3   2.073587 S    
C151  H15   1.078244 S    
C82   C90   1.409131 A    
C73   Br5   1.923021 S    
C149  H13   1.077531 S    
C110  C118  1.390087 A    
O35   C183  1.222251 A    
O47   Zn10  2.008624 S    
C87   C95   1.418714 A    
C155  C163  1.392746 A    
O15   Zn4   2.102614 S    
O36   Zn11  1.976442 S    
C153  H17   1.078791 S    
O22   C14   1.281572 A    
O36   C184  1.225045 A    
C54   C62   1.377043 A    
O18   Zn2   2.026268 S    
O37   C185  1.230511 A    
C82   C93   1.420892 A    
N4    O55   1.302987 A    
O3    Zn3   2.029883 S    
C92   C180  1.406684 A    
C78   C142  1.437228 A    
O38   Zn10  2.005157 S    
C24   C38   1.415517 A    
O39   C187  1.225206 A    
C80   C88   1.420413 A    
C51   C59   1.426090 A    
C81   C89   1.413814 A    
C48   C70   1.413491 A    
C90   C98   1.423841 A    
O18   C10   1.281340 A    
C84   C92   1.417408 A    
N5    O57   1.302494 A    
C105  C145  1.406750 A    
C10   C57   1.445475 S    
C94   C161  1.405277 A    
N5    O58   1.300435 A    
N7    O61   1.302979 A    
C33   C43   1.404888 A    
O28   C4    1.287041 A    
C92   C100  1.429896 A    
C39   C42   1.412384 A    
O29   C5    1.306261 A    
C80   C99   1.419138 A    
C81   C94   1.417333 A    
C167  C175  1.388151 A    
C7    C131  1.463904 S    
C8    C132  1.462152 S    
C22   C30   1.404500 A    
O15   C15   1.262233 A    
C49   C75   1.414033 A    
C22   C40   1.409695 A    
C88   C96   1.428549 A    
C89   C97   1.427463 A    
C108  C148  1.409604 A    
C135  C167  1.415711 A    
C35   C44   1.412969 A    
C119  N3    1.440893 S    
C133  C165  1.414104 A    
O4    Zn4   2.029883 S    
O5    Zn5   2.012740 S    
C139  C147  1.410144 A    
C172  C180  1.394120 A    
C56   C61   1.371703 A    
C137  C169  1.413979 A    
C17   C35   1.409081 A    
O14   Zn1   2.117325 S    
C113  C121  1.390024 A    
C17   C25   1.405495 A    
C18   C75   1.407222 A    
C51   C68   1.412734 A    
C23   C37   1.415788 A    
C22   C71   1.407412 A    
O26   C2    1.306169 A    
O11   C11   1.262450 A    
O39   Zn10  1.976440 S    
C175  H39   1.081357 S    
C156  C164  1.391326 A    
C121  N5    1.439718 S    
C150  C158  1.391067 A    
O28   Zn7   2.073587 S    
C130  C138  1.442105 A    
O29   Zn2   2.071377 S    
C37   C39   1.413853 A    
C47   C66   1.412710 A    
H4    C29   1.082317 S    
O41   C183  1.258015 A    
C98   C157  1.398723 A    
O42   C184  1.272500 A    
C95   C164  1.407355 A    
C75   Br7   1.921423 S    
N3    O54   1.301367 A    
C171  H35   1.079411 S    
C134  C142  1.412199 A    
C78   C97   1.417293 A    
C170  H34   1.080821 S    
C107  C155  1.402375 A    
C162  H26   1.079567 S    
C104  C112  1.424709 A    
N2    O51   1.302503 A    
C104  C152  1.402383 A    
O26   Zn5   2.071377 S    
C82   C146  1.432166 A    
C135  C143  1.413911 A    
C100  C159  1.408157 A    
C133  C141  1.416470 A    
C131  C139  1.436570 A    
C77   C141  1.436045 A    
C74   Br6   1.924915 S    
C61   H9    1.084733 S    
O40   C188  1.225491 A    
C48   C56   1.425023 A    
C173  H37   1.079252 S    
C77   C98   1.418951 A    
O20   Zn4   2.014767 S    
O21   Zn5   2.026268 S    
N2    O52   1.300437 A    
O31   C7    1.287159 A    
O32   C8    1.289704 A    
O17   C9    1.281823 A    
C84   C95   1.412837 A    
C2    C126  1.479094 S    
C115  C182  1.466926 S    
C18   C36   1.409417 A    
C102  C142  1.406803 A    
C106  C114  1.435806 A    
O19   Zn3   2.014767 S    
C136  C144  1.410133 A    
C83   C96   1.419067 A    
O25   C1    1.308169 A    
C80   C144  1.431932 A    
C63   H11   1.084740 S    
C122  N6    1.440947 S    
O1    Zn1   2.012740 S    
C46   C72   1.414136 A    
