data_str_m4_o22_o24_f0_acs.sym.113
_audit_creation_date              2012-12-11T15:08:38-0500
_audit_creation_method            fapswitch 2.2
_symmetry_space_group_name_H-M    P1
_symmetry_Int_Tables_number       1
_space_group_crystal_system       triclinic
_cell_length_a                    19.623179
_cell_length_b                    11.391565
_cell_length_c                    18.693011
_cell_angle_alpha                 89.960408
_cell_angle_beta                  90.107442
_cell_angle_gamma                 90.003521
_cell_volume                      4178.60338268

loop_
_atom_site_label
_atom_site_type_symbol
_atom_type_description
_atom_site_fract_x
_atom_site_fract_y
_atom_site_fract_z
_atom_type_partial_charge
C1    C     C_R   0.272282 0.043941 0.853736 0.533238
C2    C     C_R   0.727723 0.043987 0.146273 0.534323
C3    C     C_R   0.772282 0.543939 0.853740 0.533629
C4    C     C_R   0.227718 0.543982 0.146266 0.532974
C5    C     C_3   0.524722 0.724811 0.968335 -0.124035
C6    C     C_3   0.475318 0.724784 0.031773 -0.123481
C7    C     C_3   0.024721 0.224820 0.968335 -0.123856
C8    C     C_3   0.975310 0.224801 0.031766 -0.123712
C9    C     C_3   0.311138 0.526874 0.043622 -0.236597
C10   C     C_3   0.688852 0.526864 0.956424 -0.237465
C11   C     C_3   0.811141 0.026866 0.043637 -0.237621
C12   C     C_3   0.188852 0.026867 0.956415 -0.237532
C13   C     C_3   0.320650 0.551983 0.963142 -0.233439
C14   C     C_3   0.679335 0.552065 0.036882 -0.232951
C15   C     C_3   0.820654 0.051976 0.963154 -0.232747
C16   C     C_3   0.179336 0.052065 0.036873 -0.232617
C17   C     C_3   0.180910 0.526747 0.026053 -0.208858
C18   C     C_3   0.819065 0.526770 0.974013 -0.208513
C19   C     C_3   0.680915 0.026746 0.026062 -0.208682
C20   C     C_3   0.319065 0.026767 0.974007 -0.208365
C21   C     C_3   0.243746 0.708074 0.056557 -0.259294
C22   C     C_3   0.756240 0.708062 0.943307 -0.259208
C23   C     C_3   0.743756 0.208072 0.056565 -0.259211
C24   C     C_3   0.256240 0.208061 0.943298 -0.259269
C25   C     C_3   0.241909 0.575867 0.070483 0.064080
C26   C     C_3   0.758075 0.575841 0.929510 0.065119
C27   C     C_3   0.741914 0.075866 0.070493 0.064475
C28   C     C_3   0.258075 0.075841 0.929504 0.065221
C29   C     C_3   0.255498 0.610427 0.932106 0.057884
C30   C     C_3   0.744491 0.610527 0.067874 0.057897
C31   C     C_3   0.755502 0.110426 0.932114 0.057831
C32   C     C_3   0.244491 0.110528 0.067868 0.057403
C33   C     C_3   0.195727 0.526736 0.945188 -0.258689
C34   C     C_3   0.804249 0.526821 0.054880 -0.258600
C35   C     C_3   0.695731 0.026735 0.945197 -0.258623
C36   C     C_3   0.304248 0.026818 0.054873 -0.258679
C37   C     C_3   0.239916 0.725513 0.974583 -0.220065
C38   C     C_3   0.760089 0.725576 0.025266 -0.220214
C39   C     C_3   0.739921 0.225511 0.974592 -0.220218
C40   C     C_3   0.260089 0.225575 0.025257 -0.220071
C41   C     C_3   0.507422 0.696036 0.460751 0.189602
C42   C     C_3   0.494968 0.696248 0.540762 0.192141
C43   C     C_3   0.004923 0.194222 0.459438 0.189721
C44   C     C_3   0.993813 0.194395 0.540069 0.190440
C45   C     C_R   0.463780 0.819676 0.857070 0.544549
C46   C     C_R   0.536188 0.819727 0.142942 0.546070
C47   C     C_R   0.963792 0.319679 0.857064 0.543978
C48   C     C_R   0.036171 0.319732 0.142948 0.543182
C49   C     C_3   0.562155 0.899590 0.472396 -0.281799
C50   C     C_3   0.435459 0.897651 0.526421 -0.278283
C51   C     C_3   0.063210 0.397215 0.472777 -0.276346
C52   C     C_3   0.936507 0.397685 0.526745 -0.277475
C53   C     C_3   0.439291 0.877500 0.444877 -0.270845
C54   C     C_3   0.558284 0.883538 0.554355 -0.269963
C55   C     C_3   0.940163 0.379683 0.445069 -0.269414
C56   C     C_3   0.059466 0.379108 0.554429 -0.269819
C57   C     C_3   0.509440 0.823974 0.430610 0.063608
C58   C     C_3   0.489548 0.825164 0.569193 0.065214
C59   C     C_3   0.009538 0.323407 0.430459 0.066204
C60   C     C_3   0.989922 0.323499 0.569118 0.065404
C61   C     C_3   0.174481 0.640097 0.460609 0.168598
C62   C     C_3   0.826041 0.639585 0.539089 0.167233
C63   C     C_3   0.673304 0.137112 0.462065 0.167070
C64   C     C_3   0.324624 0.141764 0.539824 0.168305
C65   C     C_3   0.183282 0.662090 0.539542 -0.187312
C66   C     C_3   0.817139 0.660747 0.460034 -0.187142
C67   C     C_3   0.683195 0.161073 0.540484 -0.185558
C68   C     C_3   0.315630 0.161423 0.460779 -0.185802
C69   C     C_3   0.250775 0.456898 0.473858 -0.258194
C70   C     C_3   0.749304 0.456693 0.526548 -0.263041
C71   C     C_3   0.751372 0.957189 0.473589 -0.260026
C72   C     C_3   0.249107 0.956690 0.526371 -0.260779
C73   C     C_3   0.298340 0.652332 0.442768 -0.249246
C74   C     C_3   0.702691 0.652615 0.556778 -0.245525
C75   C     C_3   0.796214 0.155247 0.443366 -0.251177
C76   C     C_3   0.201132 0.150820 0.557482 -0.241974
C77   C     C_3   0.237434 0.572970 0.430529 0.062228
C78   C     C_3   0.763149 0.572907 0.569297 0.062389
C79   C     C_3   0.736800 0.073386 0.430825 0.059385
C80   C     C_3   0.262496 0.072716 0.569550 0.063850
C81   C     C_3   0.250798 0.607668 0.567962 0.019222
C82   C     C_3   0.749346 0.606500 0.431772 0.023086
C83   C     C_3   0.750896 0.106994 0.568365 0.018481
C84   C     C_3   0.248242 0.107564 0.432305 0.017972
C85   C     C_3   0.243795 0.476548 0.555493 -0.278956
C86   C     C_3   0.755151 0.474935 0.444725 -0.283809
C87   C     C_3   0.745064 0.975660 0.555445 -0.281373
C88   C     C_3   0.254705 0.976014 0.444679 -0.281643
C89   C     C_R   0.262296 0.642241 0.854849 0.543582
C90   C     C_R   0.737685 0.642347 0.145123 0.543947
C91   C     C_R   0.762298 0.142245 0.854853 0.543752
C92   C     C_R   0.237684 0.142349 0.145120 0.541692
C93   C     C_3   0.313742 0.649510 0.523654 -0.220383
C94   C     C_3   0.686965 0.649504 0.476067 -0.220011
C95   C     C_3   0.813060 0.150494 0.523803 -0.221772
C96   C     C_3   0.185598 0.149359 0.476623 -0.217774
C97   C     C_R   0.274128 0.042200 0.645542 0.549270
C98   C     C_R   0.725838 0.042609 0.354504 0.549419
C99   C     C_R   0.774179 0.542417 0.645519 0.549266
C100  C     C_R   0.225947 0.542400 0.354441 0.547289
C101  C     C_R   0.468875 0.822564 0.645746 0.554308
C102  C     C_R   0.530550 0.822277 0.353986 0.553344
C103  C     C_R   0.969107 0.322253 0.645798 0.550987
C104  C     C_R   0.030612 0.322221 0.353965 0.550427
C105  C     C_R   0.260760 0.640925 0.643824 0.544751
C106  C     C_R   0.739373 0.640230 0.355962 0.546430
C107  C     C_R   0.760721 0.140470 0.644057 0.546153
C108  C     C_R   0.238958 0.141254 0.356387 0.542681
C109  C     C_3   0.474451 0.917057 0.031691 -0.122162
C110  C     C_3   0.525461 0.917086 0.968207 -0.122110
C111  C     C_3   0.974450 0.417072 0.031685 -0.122325
C112  C     C_3   0.025467 0.417094 0.968207 -0.122274
C113  C     C_3   0.432310 0.819540 0.994897 -0.135596
C114  C     C_3   0.567670 0.819691 0.005102 -0.136269
C115  C     C_3   0.932310 0.319560 0.994885 -0.135730
C116  C     C_3   0.067668 0.319695 0.005109 -0.135687
C117  C     C_3   0.483319 0.821648 0.932414 0.066884
C118  C     C_3   0.516661 0.821748 0.067589 0.066008
C119  C     C_3   0.983327 0.321659 0.932409 0.067003
C120  C     C_3   0.016651 0.321759 0.067590 0.067164
Cr1   Cr    Cr6+3 0.229620 0.836040 0.749110 0.948720
Cr2   Cr    Cr6+3 0.770380 0.836040 0.250890 0.949303
Cr3   Cr    Cr6+3 0.729620 0.336040 0.749110 0.948439
Cr4   Cr    Cr6+3 0.270380 0.336040 0.250890 0.968997
Cr5   Cr    Cr6+3 0.387630 0.990680 0.750730 0.975387
Cr6   Cr    Cr6+3 0.612370 0.990680 0.249270 0.978044
Cr7   Cr    Cr6+3 0.887630 0.490680 0.750730 0.978741
Cr8   Cr    Cr6+3 0.112370 0.490680 0.249270 0.978852
Cr9   Cr    Cr6+3 0.386020 0.676590 0.749210 0.968290
Cr10  Cr    Cr6+3 0.613980 0.676590 0.250790 0.971151
Cr11  Cr    Cr6+3 0.886020 0.176590 0.749210 0.968549
Cr12  Cr    Cr6+3 0.113980 0.176590 0.250790 0.969103
H1    H     H_    0.377984 0.799151 0.997151 0.089261
H2    H     H_    0.622009 0.799440 0.002787 0.089349
H3    H     H_    0.877986 0.299155 0.997134 0.089259
H4    H     H_    0.122005 0.299430 0.002799 0.089336
H5    H     H_    0.200284 0.753679 0.082691 0.124672
H6    H     H_    0.799693 0.753665 0.917111 0.124539
H7    H     H_    0.700298 0.253684 0.082701 0.125532
H8    H     H_    0.299694 0.253663 0.917101 0.124008
H9    H     H_    0.291544 0.745228 0.078781 0.104930
H10   H     H_    0.708435 0.745189 0.921051 0.104510
H11   H     H_    0.791557 0.245223 0.078786 0.104522
H12   H     H_    0.208435 0.245189 0.921042 0.104328
H13   H     H_    0.273299 0.795795 0.956977 0.110817
H14   H     H_    0.726717 0.795880 0.042778 0.110584
H15   H     H_    0.773300 0.295794 0.956982 0.110802
H16   H     H_    0.226717 0.295881 0.042768 0.109975
H17   H     H_    0.186699 0.751105 0.961727 0.128928
H18   H     H_    0.813307 0.751185 0.038083 0.128753
H19   H     H_    0.686703 0.251100 0.961739 0.128903
H20   H     H_    0.313308 0.251184 0.038072 0.129153
H21   H     H_    0.634789 0.081818 0.035222 0.139202
H22   H     H_    0.365197 0.081820 0.964779 0.139103
H23   H     H_    0.134783 0.581816 0.035214 0.139281
H24   H     H_    0.865197 0.581822 0.964785 0.139052
H25   H     H_    0.150036 0.556568 0.915171 0.121816
H26   H     H_    0.849943 0.556672 0.084864 0.121822
H27   H     H_    0.650039 0.056568 0.915181 0.121820
H28   H     H_    0.349943 0.056667 0.084856 0.122144
H29   H     H_    0.556997 0.657714 0.451451 0.137844
H30   H     H_    0.446408 0.653076 0.550354 0.141050
H31   H     H_    0.053240 0.151122 0.449214 0.141425
H32   H     H_    0.945212 0.152395 0.550414 0.140761
H33   H     H_    0.613646 0.888309 0.452148 0.100745
H34   H     H_    0.384445 0.889756 0.547963 0.103787
H35   H     H_    0.114437 0.388788 0.451649 0.102833
H36   H     H_    0.885300 0.389229 0.547847 0.103225
H37   H     H_    0.601166 0.829510 0.574128 0.161191
H38   H     H_    0.397810 0.819389 0.426578 0.159404
H39   H     H_    0.101605 0.322986 0.573436 0.162031
H40   H     H_    0.897707 0.324102 0.426104 0.162902
H41   H     H_    0.456204 0.997227 0.058975 0.103481
H42   H     H_    0.543668 0.997270 0.940832 0.103047
H43   H     H_    0.956203 0.497245 0.058967 0.103027
H44   H     H_    0.043678 0.497277 0.940835 0.103062
H45   H     H_    0.433240 0.961255 0.415403 0.102192
H46   H     H_    0.561852 0.969862 0.581634 0.096921
H47   H     H_    0.935172 0.464783 0.416815 0.094807
H48   H     H_    0.064839 0.464154 0.582627 0.094565
H49   H     H_    0.450674 0.989700 0.534165 0.111244
H50   H     H_    0.545792 0.990682 0.461463 0.123015
H51   H     H_    0.952468 0.489132 0.535571 0.114917
H52   H     H_    0.047652 0.488911 0.463776 0.115374
H53   H     H_    0.131531 0.583034 0.452877 0.127421
H54   H     H_    0.868949 0.582916 0.547296 0.128608
H55   H     H_    0.632958 0.075533 0.456902 0.117030
H56   H     H_    0.369063 0.088190 0.548614 0.125320
H57   H     H_    0.180949 0.756090 0.549980 0.155750
H58   H     H_    0.819415 0.755064 0.449540 0.157376
H59   H     H_    0.681886 0.255594 0.549550 0.156793
H60   H     H_    0.320244 0.255016 0.448736 0.159739
H61   H     H_    0.138993 0.624416 0.568636 0.077963
H62   H     H_    0.861280 0.622689 0.430974 0.078152
H63   H     H_    0.639082 0.125195 0.570806 0.079443
H64   H     H_    0.357750 0.118009 0.432382 0.083857
H65   H     H_    0.720429 0.884516 0.455051 0.117136
H66   H     H_    0.279430 0.883422 0.544960 0.117551
H67   H     H_    0.220241 0.383908 0.455078 0.117682
H68   H     H_    0.779744 0.383801 0.545435 0.116335
H69   H     H_    0.695887 0.942127 0.575719 0.104663
H70   H     H_    0.303653 0.942283 0.423841 0.104756
H71   H     H_    0.194274 0.443845 0.575357 0.104944
H72   H     H_    0.804278 0.441677 0.424228 0.104959
H73   H     H_    0.340725 0.618235 0.411263 0.169118
H74   H     H_    0.661220 0.616724 0.588011 0.176286
H75   H     H_    0.837927 0.123262 0.411164 0.176411
H76   H     H_    0.159986 0.112271 0.588068 0.175483
H77   H     H_    0.288392 0.742735 0.424097 0.156150
H78   H     H_    0.711952 0.743006 0.575771 0.156367
H79   H     H_    0.784690 0.245468 0.425627 0.152488
H80   H     H_    0.209124 0.241064 0.577493 0.157100
H81   H     H_    0.543085 0.644824 0.940892 0.108858
H82   H     H_    0.457005 0.644778 0.059311 0.108963
H83   H     H_    0.043086 0.144832 0.940895 0.108776
H84   H     H_    0.956978 0.144799 0.059290 0.108852
H85   H     H_    0.335340 0.730754 0.543056 0.108631
H86   H     H_    0.665652 0.731083 0.456534 0.107201
H87   H     H_    0.834992 0.231130 0.543763 0.109270
H88   H     H_    0.164317 0.231057 0.457592 0.109206
H89   H     H_    0.353538 0.582167 0.531655 0.129869
H90   H     H_    0.647300 0.581684 0.468547 0.130385
H91   H     H_    0.852946 0.082903 0.530343 0.133317
H92   H     H_    0.145823 0.082101 0.468393 0.130018
H93   H     H_    0.304355 0.431940 0.463500 0.137775
H94   H     H_    0.695740 0.432484 0.537744 0.137263
H95   H     H_    0.804927 0.933038 0.462252 0.138672
H96   H     H_    0.195610 0.932048 0.537342 0.135932
H97   H     H_    0.283816 0.431677 0.586092 0.194483
H98   H     H_    0.713800 0.428437 0.416087 0.188797
H99   H     H_    0.786083 0.930567 0.584886 0.193448
H100  H     H_    0.213564 0.931009 0.415439 0.193917
H101  H     H_    0.315140 0.432724 0.053679 0.131281
H102  H     H_    0.684862 0.432710 0.946485 0.130634
H103  H     H_    0.815142 0.932717 0.053703 0.130746
H104  H     H_    0.184859 0.932713 0.946474 0.130646
H105  H     H_    0.353220 0.567204 0.074710 0.103601
H106  H     H_    0.646776 0.567136 0.925272 0.102491
H107  H     H_    0.853219 0.067192 0.074733 0.102045
H108  H     H_    0.146776 0.067142 0.925263 0.102178
H109  H     H_    0.365483 0.609625 0.955123 0.142602
H110  H     H_    0.634515 0.609734 0.044827 0.142198
H111  H     H_    0.865487 0.109615 0.955135 0.142661
H112  H     H_    0.134515 0.109732 0.044818 0.142675
H113  H     H_    0.331462 0.468440 0.934545 0.114178
H114  H     H_    0.668497 0.468556 0.065578 0.114817
H115  H     H_    0.831465 0.968432 0.934558 0.114453
H116  H     H_    0.168501 0.968553 0.065567 0.114682
H117  H     H_    0.666895 0.941981 0.047161 0.113474
H118  H     H_    0.333071 0.941980 0.953040 0.113774
H119  H     H_    0.166894 0.441982 0.047151 0.113336
H120  H     H_    0.833067 0.441985 0.953045 0.113720
H121  H     H_    0.708351 0.937686 0.926245 0.110749
H122  H     H_    0.291617 0.937781 0.073928 0.110828
H123  H     H_    0.208348 0.437686 0.926237 0.110578
H124  H     H_    0.791619 0.437783 0.073935 0.110886
O1    O     O_R   0.214130 0.708570 0.829890 -0.532658
O2    O     O_R   0.785870 0.708570 0.170110 -0.532769
O3    O     O_R   0.714130 0.208570 0.829890 -0.532978
O4    O     O_R   0.285870 0.208570 0.170110 -0.529347
O5    O     O_R   0.446360 0.919990 0.675230 -0.528301
O6    O     O_R   0.553640 0.919990 0.324770 -0.540363
O7    O     O_R   0.946360 0.419990 0.675230 -0.523672
O8    O     O_R   0.053640 0.419990 0.324770 -0.523777
O9    O     O_R   0.457170 0.717300 0.668380 -0.531932
O10   O     O_R   0.542830 0.717300 0.331620 -0.519464
O11   O     O_R   0.957170 0.217300 0.668380 -0.535205
O12   O     O_R   0.042830 0.217300 0.331620 -0.536868
O13   O     O_R   0.320870 0.624890 0.673130 -0.516682
O14   O     O_R   0.679130 0.624890 0.326870 -0.518360
O15   O     O_R   0.820870 0.124890 0.673130 -0.515709
O16   O     O_R   0.179130 0.124890 0.326870 -0.515861
O17   O     O_3   0.334430 0.834430 0.749680 -0.270553
O18   O     O_3   0.665570 0.834430 0.250320 -0.272081
O19   O     O_3   0.834430 0.334430 0.749680 -0.271033
O20   O     O_3   0.165570 0.334430 0.250320 -0.273151
O21   O     O_R   0.236050 0.959150 0.825270 -0.527674
O22   O     O_R   0.763950 0.959150 0.174730 -0.527555
O23   O     O_R   0.736050 0.459150 0.825270 -0.528071
O24   O     O_R   0.263950 0.459150 0.174730 -0.515481
O25   O     O_R   0.332100 0.076650 0.832310 -0.533462
O26   O     O_R   0.667900 0.076650 0.167690 -0.527945
O27   O     O_R   0.832100 0.576650 0.832310 -0.533034
O28   O     O_R   0.167900 0.576650 0.167690 -0.534285
O29   O     O_R   0.446500 0.918620 0.826240 -0.509027
O30   O     O_R   0.553500 0.918620 0.173760 -0.509612
O31   O     O_R   0.946500 0.418620 0.826240 -0.509196
O32   O     O_R   0.053500 0.418620 0.173760 -0.509499
O33   O     O_R   0.457310 0.715830 0.831280 -0.545756
O34   O     O_R   0.542690 0.715830 0.168720 -0.538891
O35   O     O_R   0.957310 0.215830 0.831280 -0.546657
O36   O     O_R   0.042690 0.215830 0.168720 -0.546666
O37   O     O_R   0.321000 0.623520 0.824130 -0.510580
O38   O     O_R   0.679000 0.623520 0.175870 -0.512267
O39   O     O_R   0.821000 0.123520 0.824130 -0.510136
O40   O     O_R   0.179000 0.123520 0.175870 -0.510502
O41   O     O_R   0.213990 0.710040 0.667000 -0.546183
O42   O     O_R   0.786010 0.710040 0.333000 -0.546451
O43   O     O_R   0.713990 0.210040 0.667000 -0.547283
O44   O     O_R   0.286010 0.210040 0.333000 -0.539574
O45   O     O_R   0.235920 0.960520 0.674260 -0.536254
O46   O     O_R   0.764080 0.960520 0.325740 -0.534009
O47   O     O_R   0.735920 0.460520 0.674260 -0.535825
O48   O     O_R   0.264080 0.460520 0.325740 -0.540114
O49   O     O_R   0.331960 0.078120 0.669410 -0.506470
O50   O     O_R   0.668040 0.078120 0.330590 -0.506003
O51   O     O_R   0.831960 0.578120 0.669410 -0.505465
O52   O     O_R   0.168040 0.578120 0.330590 -0.504483
O53   O     O_3   0.454599 0.632812 0.426461 -0.636403
C121  C     C_3   0.475289 0.527740 0.392813 -0.000574
H125  H     H_    0.465171 0.455881 0.431087 0.101045
H126  H     H_    0.530293 0.523976 0.379230 0.149503
C122  C     C_3   0.432463 0.513368 0.324082 -0.233742
H127  H     H_    0.388125 0.456516 0.335724 0.157497
H128  H     H_    0.412684 0.600530 0.306917 0.194941
C123  C     C_3   0.471333 0.462006 0.260646 -0.438765
H129  H     H_    0.522858 0.501385 0.255632 0.176972
H130  H     H_    0.442712 0.480414 0.210541 0.137205
H131  H     H_    0.475199 0.365644 0.265692 0.122424
O54   O     O_3   0.549934 0.638946 0.575912 -0.635663
C124  C     C_3   0.534132 0.533058 0.612195 0.008224
H132  H     H_    0.557539 0.459758 0.581723 0.117134
H133  H     H_    0.478916 0.515623 0.615673 0.124390
C125  C     C_3   0.564218 0.538549 0.688924 -0.248071
H134  H     H_    0.609316 0.597145 0.690509 0.173334
H135  H     H_    0.526770 0.576569 0.726614 0.190434
C126  C     C_3   0.585348 0.419681 0.719114 -0.446774
H136  H     H_    0.540577 0.371544 0.739565 0.109790
H137  H     H_    0.619376 0.433530 0.765683 0.180229
H138  H     H_    0.612659 0.366642 0.678578 0.183019
O55   O     O_3   0.949574 0.135798 0.425471 -0.638997
C127  C     C_3   0.965598 0.033344 0.385790 0.009116
H139  H     H_    0.943182 0.957433 0.414659 0.119945
H140  H     H_    0.020912 0.017374 0.380897 0.128676
C128  C     C_3   0.934119 0.042942 0.309703 -0.246870
H141  H     H_    0.887396 0.097365 0.310245 0.169472
H142  H     H_    0.969615 0.087185 0.272524 0.194385
C129  C     C_3   0.916209 0.925090 0.276099 -0.447561
H143  H     H_    0.962596 0.880579 0.256437 0.109333
H144  H     H_    0.883402 0.940029 0.228661 0.174652
H145  H     H_    0.888427 0.868401 0.314436 0.185281
O56   O     O_3   0.048772 0.135043 0.574028 -0.638303
C130  C     C_3   0.032060 0.032359 0.613236 0.008523
H146  H     H_    0.054196 0.956458 0.584185 0.118961
H147  H     H_    0.976634 0.017105 0.617773 0.127411
C131  C     C_3   0.063031 0.041071 0.689572 -0.248411
H148  H     H_    0.107650 0.100753 0.690097 0.171711
H149  H     H_    0.025779 0.079153 0.727408 0.191788
C132  C     C_3   0.085060 0.923650 0.721075 -0.447438
H150  H     H_    0.040496 0.874891 0.741654 0.108760
H151  H     H_    0.118709 0.939667 0.767687 0.178109
H152  H     H_    0.113095 0.870338 0.681232 0.185842
O57   O     O_3   0.163536 0.747198 0.423528 -0.587814
C133  C     C_3   0.094730 0.784740 0.427498 -0.002332
H153  H     H_    0.094837 0.879129 0.442134 0.107457
H154  H     H_    0.064877 0.741361 0.470900 0.094051
C134  C     C_3   0.060083 0.771167 0.354062 -0.230365
H155  H     H_    0.049775 0.857998 0.330918 0.098352
H156  H     H_    0.093844 0.730675 0.314097 0.226829
C135  C     C_3   0.994530 0.700015 0.358744 -0.456448
H157  H     H_    0.005826 0.612435 0.380762 0.164995
H158  H     H_    0.972041 0.688064 0.304742 0.143795
H159  H     H_    0.957287 0.744854 0.393906 0.109503
O58   O     O_3   0.836771 0.747080 0.575753 -0.588492
C136  C     C_3   0.905562 0.784703 0.572030 -0.003065
H160  H     H_    0.905364 0.879224 0.557697 0.107722
H161  H     H_    0.935421 0.741872 0.528472 0.094268
C137  C     C_3   0.940186 0.770289 0.645474 -0.230884
H162  H     H_    0.951072 0.856733 0.668787 0.098180
H163  H     H_    0.906213 0.730312 0.685449 0.226735
C138  C     C_3   0.005347 0.698145 0.640691 -0.455103
H164  H     H_    0.993634 0.611072 0.618346 0.165034
H165  H     H_    0.027682 0.685071 0.694673 0.144255
H166  H     H_    0.042872 0.742844 0.605764 0.109525
O59   O     O_3   0.656850 0.242317 0.424839 -0.580132
C139  C     C_3   0.586482 0.269384 0.431622 -0.017352
H167  H     H_    0.581231 0.365907 0.429661 0.121064
H168  H     H_    0.564989 0.242062 0.484245 0.095121
C140  C     C_3   0.546195 0.215046 0.369480 -0.245628
H169  H     H_    0.556411 0.263479 0.319261 0.154251
H170  H     H_    0.561871 0.124051 0.361958 0.231078
C141  C     C_3   0.470885 0.203334 0.384376 -0.509306
H171  H     H_    0.465227 0.155220 0.435395 0.115810
H172  H     H_    0.446344 0.152018 0.340852 0.161264
H173  H     H_    0.444723 0.288108 0.387751 0.142364
O60   O     O_3   0.332098 0.250228 0.576202 -0.591424
C142  C     C_3   0.400074 0.292145 0.576159 -0.006198
H174  H     H_    0.398531 0.386924 0.562853 0.107274
H175  H     H_    0.432500 0.252965 0.533805 0.099488
C143  C     C_3   0.431823 0.277836 0.650907 -0.228212
H176  H     H_    0.447203 0.363714 0.672219 0.093820
H177  H     H_    0.394213 0.247139 0.690605 0.223028
C144  C     C_3   0.493039 0.195447 0.649664 -0.436653
H178  H     H_    0.478612 0.111434 0.624815 0.175206
H179  H     H_    0.511112 0.177748 0.704918 0.141726
H180  H     H_    0.534961 0.234807 0.617955 0.105132

loop_
_geom_bond_atom_site_label_1
_geom_bond_atom_site_label_2
_ccdc_geom_bond_type
C134  H155  S    
C82   C94   S    
C55   C59   S    
C63   O59   S    
C83   C87   S    
C73   C93   S    
C142  C143  S    
C47   O35   A    
C42   C58   S    
C29   C89   S    
C75   C95   S    
C48   C120  S    
Cr5   O17   S    
C24   H8    S    
C57   C102  S    
C41   O53   S    
C59   C104  S    
Cr1   O21   S    
Cr2   O18   S    
C5    C6    S    
Cr10  O14   S    
C109  H41   S    
Cr11  O11   S    
C22   C38   S    
C29   C33   S    
C30   C38   S    
C77   C100  S    
C9    C13   S    
C138  H166  S    
C92   O4    A    
C75   H75   S    
C61   O57   S    
C12   C16   S    
C139  H168  S    
C125  H134  S    
C95   H87   S    
C102  O6    A    
C99   O51   A    
C103  O11   A    
C60   C103  S    
C139  C140  S    
C113  H1    S    
C54   H37   S    
C23   H11   S    
C137  H162  S    
C66   H62   S    
C109  C118  S    
C15   H111  S    
C16   H116  S    
C11   H103  S    
Cr5   O29   S    
C50   C53   S    
C9    H101  S    
C46   O30   A    
Cr7   O31   S    
C33   H123  S    
C85   H97   S    
Cr8   O32   S    
C128  H142  S    
C62   C66   S    
O56   C130  S    
C143  H177  S    
C20   C28   S    
Cr3   O3    S    
C96   H88   S    
C90   O38   A    
C54   H46   S    
C123  H129  S    
C100  O48   A    
C43   C44   S    
C1    O21   A    
C66   C82   S    
C20   H118  S    
C11   C27   S    
C5    H81   S    
C58   C101  S    
C106  O42   A    
C53   H38   S    
C88   H100  S    
C65   H57   S    
C134  C135  S    
C56   H39   S    
C4    O24   A    
C142  H174  S    
C90   O2    A    
C55   H40   S    
C18   H24   S    
C92   O40   A    
C70   H68   S    
Cr2   O46   S    
C3    C26   S    
Cr3   O43   S    
C84   C88   S    
C31   C91   S    
Cr7   O19   S    
C8    H84   S    
C53   H45   S    
Cr12  O16   S    
O59   C139  S    
C144  H178  S    
Cr10  O38   S    
Cr11  O35   S    
C17   C25   S    
C19   C35   S    
C136  H160  S    
C76   C96   S    
C1    O25   A    
C32   C92   S    
C125  C126  S    
C44   O56   S    
Cr3   O23   S    
C98   O46   A    
C36   H122  S    
C21   H9    S    
C128  H141  S    
C61   C65   S    
C12   H108  S    
C138  H165  S    
C124  H132  S    
C78   C99   S    
C73   C77   S    
C104  O8    A    
C128  C129  S    
C88   H70   S    
C75   C79   S    
C137  C138  S    
C76   H76   S    
Cr12  O20   S    
C67   C83   S    
C132  H150  S    
Cr8   O52   S    
C80   C97   S    
C51   H35   S    
C111  C112  S    
C71   C79   S    
C4    C25   S    
Cr4   O24   S    
C7    C8    S    
C123  H131  S    
C64   C68   S    
C73   H77   S    
C24   H12   S    
C122  H128  S    
C39   H19   S    
C49   C57   S    
O58   C136  S    
C40   H20   S    
C93   H85   S    
C38   H14   S    
C52   C60   S    
C14   H110  S    
C61   C77   S    
C110  C114  S    
C43   C59   S    
C62   H54   S    
C76   H80   S    
C10   H106  S    
Cr6   O18   S    
C11   C15   S    
Cr2   O22   S    
C135  H157  S    
Cr3   O19   S    
C110  H42   S    
C144  H180  S    
C81   C105  S    
C30   C34   S    
C127  H139  S    
C10   C14   S    
C136  C137  S    
C126  H137  S    
C140  C141  S    
C95   H91   S    
C116  C120  S    
C20   C36   S    
C7    C116  S    
C131  H149  S    
C124  C125  S    
C22   H10   S    
C61   H53   S    
C114  H2    S    
C50   C58   S    
Cr11  O15   S    
C64   H56   S    
C113  C117  S    
C16   H112  S    
C112  H44   S    
Cr5   O25   S    
C132  H152  S    
C63   H55   S    
Cr6   O30   S    
C9    H105  S    
Cr8   O28   S    
C112  C116  S    
C69   C85   S    
C131  C132  S    
C56   H48   S    
C45   C117  S    
C21   C25   S    
C45   O33   A    
C55   H47   S    
C62   C78   S    
C24   C28   S    
C142  H175  S    
C2    O22   A    
C42   H30   S    
C15   C31   S    
C16   C32   S    
C129  H145  S    
C97   O49   A    
C130  H147  S    
C72   C80   S    
C107  O43   A    
C115  H3    S    
C31   C39   S    
C66   H58   S    
C4    O28   A    
C82   C106  S    
Cr5   O49   S    
C91   O3    A    
C51   C59   S    
C125  H135  S    
C133  H153  S    
Cr5   O5    S    
C94   H90   S    
C135  H159  S    
C81   C85   S    
Cr1   O1    S    
C13   H113  S    
C141  H171  S    
C41   H29   S    
C41   C42   S    
C74   C94   S    
Cr9   O17   S    
C18   C26   S    
C127  C128  S    
C30   C90   S    
C137  H163  S    
O57   C133  S    
C9    C25   S    
C140  H169  S    
C2    O26   A    
C75   H79   S    
C23   C39   S    
C12   C28   S    
C13   C29   S    
C54   C58   S    
C98   O50   A    
C138  H164  S    
C42   O54   S    
C45   O29   A    
C46   C118  S    
C123  H130  S    
C73   H73   S    
C69   C77   S    
C50   H34   S    
C1    C28   S    
Cr1   O41   S    
C2    C27   S    
Cr10  O18   S    
Cr4   O44   S    
C52   C55   S    
C134  H156  S    
C64   C80   S    
C17   C33   S    
C110  C117  S    
C38   H18   S    
C33   H25   S    
C65   H61   S    
C105  O13   A    
C10   H102  S    
C40   H16   S    
C107  O15   A    
C68   C84   S    
C76   C80   S    
C108  O16   A    
C51   H52   S    
C53   C57   S    
C19   H117  S    
C141  H173  S    
C82   C86   S    
C17   H119  S    
C56   C60   S    
C115  C119  S    
C86   H98   S    
O55   C127  S    
C49   H33   S    
C48   O36   A    
C7    C119  S    
C65   C81   S    
C6    H82   S    
Cr7   O51   S    
C68   H64   S    
C71   C87   S    
C15   H115  S    
C31   C35   S    
C62   O58   S    
C32   C36   S    
Cr9   O9    S    
C23   H7    S    
C101  O9    A    
C121  H125  S    
C37   H17   S    
C69   H93   S    
C112  C119  S    
C143  H176  S    
C116  H4    S    
C22   H6    S    
C133  H154  S    
O60   C142  S    
C41   C57   S    
C126  H136  S    
C47   O31   A    
C109  C110  S    
C48   O32   A    
C89   O37   A    
C122  H127  S    
C44   C60   S    
Cr6   O26   S    
C91   O39   A    
C84   C108  S    
Cr7   O7    S    
Cr8   O8    S    
Cr1   O17   S    
C85   H71   S    
C72   H66   S    
Cr10  O10   S    
Cr12  O40   S    
C21   C37   S    
Cr4   O4    S    
C22   C26   S    
C29   C37   S    
C44   H32   S    
C87   H69   S    
C7    H83   S    
C121  C122  S    
C43   H31   S    
C130  H146  S    
C101  O5    A    
C5    C114  S    
C70   C78   S    
C79   C98   S    
C52   H51   S    
C143  C144  S    
C135  H158  S    
C63   C79   S    
O53   C121  S    
C144  H179  S    
C20   H22   S    
C74   H78   S    
C111  H43   S    
C129  H144  S    
C34   H124  S    
C127  H140  S    
Cr6   O50   S    
C136  H161  S    
C84   C96   S    
C67   H59   S    
C140  H170  S    
C68   H60   S    
C11   H107  S    
C49   C54   S    
C94   H86   S    
Cr6   O6    S    
C19   H21   S    
C51   C56   S    
C46   O34   A    
Cr7   O27   S    
Cr8   O20   S    
C8    C115  S    
C3    O23   A    
Cr2   O2    S    
C13   H109  S    
C18   H120  S    
C124  H133  S    
Cr12  O36   S    
Cr9   O37   S    
C19   C27   S    
C74   C78   S    
C109  C113  S    
C10   C26   S    
C47   C119  S    
Cr9   O33   S    
C132  H151  S    
C43   O55   S    
C105  O41   A    
C14   C30   S    
C67   H63   S    
C72   C88   S    
C71   H65   S    
C108  O44   A    
C63   C67   S    
C70   H94   S    
C89   O1    A    
C122  C123  S    
C96   H92   S    
Cr1   O45   S    
C21   H5    S    
C5    C117  S    
C111  C120  S    
Cr2   O42   S    
Cr3   O47   S    
C6    C113  S    
Cr11  O19   S    
Cr4   O48   S    
Cr12  O12   S    
C81   C93   S    
C83   C95   S    
Cr10  O34   S    
Cr11  O39   S    
C18   C34   S    
C114  C118  S    
C34   H26   S    
C106  O14   A    
C23   C27   S    
C50   H49   S    
C97   O45   A    
C70   C86   S    
C121  H126  S    
C86   H72   S    
C99   O47   A    
C139  H167  S    
C8    C120  S    
C35   H121  S    
C74   H74   S    
C12   H104  S    
C141  H172  S    
C71   H95   S    
C104  O12   A    
C126  H138  S    
C111  C115  S    
C133  C134  S    
C72   H96   S    
O54   C124  S    
C52   H36   S    
Cr4   O20   S    
C131  H148  S    
C87   H99   S    
C3    O27   A    
C24   C40   S    
C83   C107  S    
C32   C40   S    
C35   H27   S    
Cr9   O13   S    
C36   H28   S    
C49   H50   S    
C100  O52   A    
C129  H143  S    
C102  O10   A    
C130  C131  S    
C39   H15   S    
C69   H67   S    
C103  O7    A    
C64   O60   S    
C93   H89   S    
C37   H13   S    
C6    C118  S    
C14   H114  S    
C17   H23   S    
