data_str_m2_o40_o41_f0_fof.sym.193
_audit_creation_date              2013-03-05T15:40:54-0500
_audit_creation_method            fapswitch 2.2
_symmetry_space_group_name_H-M    P1
_symmetry_Int_Tables_number       1
_space_group_crystal_system       triclinic
_cell_length_a                    28.1152
_cell_length_b                    18.966943
_cell_length_c                    16.833202
_cell_angle_alpha                 89.498405
_cell_angle_beta                  63.661905
_cell_angle_gamma                 89.805307
_cell_volume                      8044.32177223

loop_
_atom_site_label
_atom_site_type_symbol
_atom_site_description
_atom_site_fract_x
_atom_site_fract_y
_atom_site_fract_z
_atom_type_partial_charge
O1    O     O_R   0.255040 0.869590 0.478480 -0.500451
O2    O     O_R   0.744960 0.130410 0.521520 -0.488752
O3    O     O_R   0.744960 0.869590 0.521520 -0.489834
O4    O     O_R   0.255040 0.130410 0.478480 -0.467552
O5    O     O_R   0.755040 0.369590 0.478480 -0.533185
O6    O     O_R   0.244960 0.630410 0.521520 -0.494447
O7    O     O_R   0.244960 0.369590 0.521520 -0.484410
O8    O     O_R   0.755040 0.630410 0.478480 -0.520184
O9    O     O_R   0.182050 0.796550 0.624440 -0.503735
O10   O     O_R   0.817950 0.203450 0.375560 -0.475939
O11   O     O_R   0.817950 0.796550 0.375560 -0.501467
O12   O     O_R   0.182050 0.203450 0.624440 -0.478979
O13   O     O_R   0.682050 0.296550 0.624440 -0.566745
O14   O     O_R   0.317950 0.703450 0.375560 -0.520686
O15   O     O_R   0.317950 0.296550 0.375560 -0.511913
O16   O     O_R   0.682050 0.703450 0.624440 -0.480640
Cu1   Cu    Cu3+1 0.209920 0.785290 0.495070 1.146679
Cu2   Cu    Cu3+1 0.790080 0.214710 0.504930 1.250470
Cu3   Cu    Cu3+1 0.790080 0.785290 0.504930 1.204448
Cu4   Cu    Cu3+1 0.209920 0.214710 0.495070 1.215611
Cu5   Cu    Cu3+1 0.709920 0.285290 0.495070 1.162918
Cu6   Cu    Cu3+1 0.290080 0.714710 0.504930 1.231460
Cu7   Cu    Cu3+1 0.290080 0.285290 0.504930 1.242361
Cu8   Cu    Cu3+1 0.709920 0.714710 0.495070 1.253255
C1    C     C_R   0.296330 0.731679 0.328470 0.864763
C2    C     C_R   0.703848 0.268659 0.671299 0.842012
C3    C     C_R   0.704036 0.731541 0.671451 0.879153
C4    C     C_R   0.294275 0.272517 0.329694 0.844302
C5    C     C_R   0.792851 0.225375 0.330068 0.900483
C6    C     C_R   0.206406 0.775477 0.669473 0.888976
C7    C     C_R   0.207131 0.224702 0.669739 0.920952
C8    C     C_R   0.790597 0.780082 0.333787 0.843527
O17   O     O_R   0.250530 0.763330 0.367210 -0.605483
O18   O     O_R   0.749470 0.236670 0.632790 -0.573213
O19   O     O_R   0.749470 0.763330 0.632790 -0.565306
O20   O     O_R   0.250530 0.236670 0.367210 -0.581796
O21   O     O_R   0.750530 0.263330 0.367210 -0.573719
O22   O     O_R   0.249470 0.736670 0.632790 -0.543515
O23   O     O_R   0.249470 0.263330 0.632790 -0.571858
O24   O     O_R   0.750530 0.736670 0.367210 -0.580111
O25   O     O_R   0.177260 0.690030 0.513710 -0.605115
O26   O     O_R   0.822740 0.309970 0.486290 -0.565315
O27   O     O_R   0.822740 0.690030 0.486290 -0.582195
O28   O     O_R   0.177260 0.309970 0.513710 -0.616080
O29   O     O_R   0.677260 0.190030 0.513710 -0.589712
O30   O     O_R   0.322740 0.809970 0.486290 -0.598955
O31   O     O_R   0.322740 0.190030 0.486290 -0.566298
O32   O     O_R   0.677260 0.809970 0.513710 -0.537987
C9    C     C_R   0.199639 0.630467 0.515974 0.841706
C10   C     C_R   0.799014 0.368900 0.487604 0.840117
C11   C     C_R   0.802029 0.631414 0.477434 0.796510
C12   C     C_R   0.197695 0.368026 0.522390 0.888928
C13   C     C_R   0.697277 0.131774 0.523904 0.932505
C14   C     C_R   0.299805 0.868901 0.485335 0.891698
C15   C     C_R   0.302393 0.131539 0.476373 0.909347
C16   C     C_R   0.697093 0.868638 0.524804 0.900577
C17   C     C_R   0.072978 0.615069 0.423602 -0.084926
C18   C     C_R   0.943270 0.373737 0.520510 -0.087914
C19   C     C_R   0.972546 0.618571 0.419440 -0.086806
C20   C     C_R   0.036424 0.374420 0.541223 -0.097980
C21   C     C_R   0.539481 0.127986 0.526043 -0.065279
C22   C     C_R   0.432356 0.876892 0.555582 -0.068047
C23   C     C_R   0.460937 0.123960 0.464765 -0.062451
C24   C     C_R   0.530539 0.873568 0.564324 -0.066239
C25   C     C_R   0.060223 0.671880 0.380924 0.343207
C26   C     C_R   0.961422 0.310415 0.541340 0.304255
C27   C     C_R   0.007511 0.677817 0.389284 0.317540
C28   C     C_R   0.003821 0.313142 0.563855 0.216679
C29   C     C_R   0.516390 0.191304 0.513996 0.350572
C30   C     C_R   0.446095 0.816440 0.591390 0.336970
C31   C     C_R   0.485409 0.188690 0.466968 0.348035
C32   C     C_R   0.498587 0.811381 0.583479 0.186865
C33   C     C_R   0.989372 0.557445 0.448374 -0.027607
C34   C     C_R   0.022475 0.434588 0.506171 -0.009287
C35   C     C_R   0.038597 0.556558 0.453072 -0.027599
C36   C     C_R   0.974565 0.434948 0.498891 -0.016553
C37   C     C_R   0.476525 0.061820 0.493612 -0.011987
C38   C     C_R   0.512541 0.936284 0.540812 0.005816
C39   C     C_R   0.519614 0.063152 0.514983 -0.015535
C40   C     C_R   0.465360 0.936546 0.530607 -0.011005
C41   C     C_R   0.448976 0.998557 0.501901 0.079369
C42   C     C_R   0.540180 0.999950 0.531960 0.073580
C43   C     C_R   0.956786 0.496903 0.473303 0.070420
C44   C     C_R   0.054250 0.495985 0.484892 0.070761
C45   C     C_R   0.372466 0.936499 0.505112 -0.039052
C46   C     C_R   0.612494 0.065975 0.540997 -0.001596
C47   C     C_R   0.611443 0.936799 0.548794 -0.003160
C48   C     C_R   0.384451 0.061432 0.464636 -0.001403
C49   C     C_R   0.874882 0.436174 0.496330 -0.016604
C50   C     C_R   0.131865 0.559207 0.481015 -0.036162
C51   C     C_R   0.117772 0.434524 0.523464 -0.048687
C52   C     C_R   0.885854 0.560681 0.454838 -0.037229
C53   C     C_R   0.326243 0.936059 0.491321 -0.188478
C54   C     C_R   0.666251 0.065803 0.530364 -0.149239
C55   C     C_R   0.666231 0.936175 0.532515 -0.168855
C56   C     C_R   0.330889 0.064008 0.474157 -0.154239
C57   C     C_R   0.825080 0.436015 0.494326 -0.203160
C58   C     C_R   0.172699 0.562108 0.511406 -0.210014
C59   C     C_R   0.166993 0.433764 0.527533 -0.187608
C60   C     C_R   0.830128 0.563759 0.475422 -0.224766
C61   C     C_R   0.300849 0.001074 0.498415 0.369205
C62   C     C_R   0.693910 0.001341 0.509010 0.336497
C63   C     C_R   0.799228 0.500982 0.504900 0.344677
C64   C     C_R   0.186462 0.497331 0.539948 0.384400
C65   C     C_R   0.402492 0.998604 0.488880 0.091610
C66   C     C_R   0.588283 0.000869 0.540074 0.063280
C67   C     C_R   0.906039 0.497958 0.473970 0.076569
C68   C     C_R   0.101450 0.496624 0.496017 0.079249
C69   C     C_R   0.579082 0.875878 0.570677 -0.051490
C70   C     C_R   0.418183 0.120890 0.442459 -0.029711
C71   C     C_R   0.385475 0.879508 0.545605 -0.088131
C72   C     C_R   0.582528 0.128093 0.547052 -0.011146
C73   C     C_R   0.082979 0.376617 0.551938 -0.082630
C74   C     C_R   0.921513 0.618161 0.420326 -0.081179
C75   C     C_R   0.892597 0.377419 0.526440 -0.067149
C76   C     C_R   0.118857 0.615971 0.438868 -0.089013
H1    H     H_    0.589930 0.831960 0.598788 0.227843
H2    H     H_    0.409627 0.166361 0.412772 0.210625
H3    H     H_    0.356910 0.838947 0.575369 0.226660
H4    H     H_    0.592714 0.178071 0.563123 0.199150
H5    H     H_    0.090802 0.334251 0.586849 0.256943
H6    H     H_    0.910235 0.661146 0.390312 0.214917
H7    H     H_    0.865306 0.336635 0.564729 0.195148
H8    H     H_    0.144108 0.661450 0.417823 0.217675
C77   C     C_R   0.224814 0.790808 0.950961 0.063320
C78   C     C_R   0.774536 0.221864 0.047244 0.044560
C79   C     C_R   0.780297 0.776622 0.047653 0.048527
C80   C     C_R   0.223954 0.224829 0.952194 0.041139
C81   C     C_R   0.722105 0.267089 0.947651 0.056431
C82   C     C_R   0.279452 0.745918 0.050153 0.077115
C83   C     C_R   0.281314 0.263993 0.046023 0.052333
C84   C     C_R   0.728366 0.728702 0.946490 0.046800
C85   C     C_R   0.256259 0.729543 0.927751 0.032169
C86   C     C_R   0.732155 0.269685 0.083740 0.019015
C87   C     C_R   0.739899 0.724801 0.082915 0.026860
C88   C     C_R   0.271607 0.262998 0.909019 0.013616
C89   C     C_R   0.760133 0.212832 0.915566 0.013469
C90   C     C_R   0.245303 0.805318 0.078436 0.037985
C91   C     C_R   0.236218 0.220698 0.086793 0.029961
C92   C     C_R   0.770118 0.778518 0.909911 0.022010
C93   C     C_R   0.286165 0.709883 0.973169 0.039690
C94   C     C_R   0.710965 0.299247 0.029110 0.023973
C95   C     C_R   0.715619 0.698586 0.030570 0.007820
C96   C     C_R   0.297224 0.288782 0.958657 0.036887
C97   C     C_R   0.791091 0.197529 0.960249 0.000000
C98   C     C_R   0.219143 0.829327 0.026333 0.009925
C99   C     C_R   0.204668 0.207412 0.042626 0.014370
C100  C     C_R   0.794958 0.804404 0.961748 0.023586
C101  C     C_R   0.165673 0.871695 0.921804 -0.064712
C102  C     C_R   0.852178 0.168929 0.052637 -0.026393
C103  C     C_R   0.840367 0.859301 0.070395 -0.069003
C104  C     C_R   0.144009 0.175556 0.950184 -0.016289
C105  C     C_R   0.660169 0.347671 0.926739 -0.060394
C106  C     C_R   0.351798 0.674977 0.056905 -0.079995
C107  C     C_R   0.357290 0.323387 0.050893 -0.065876
C108  C     C_R   0.650648 0.669244 0.943473 -0.036485
C109  C     C_R   0.132596 0.883978 0.878134 -0.197456
C110  C     C_R   0.881072 0.150614 0.101194 -0.144128
C111  C     C_R   0.869230 0.878256 0.118938 -0.202437
C112  C     C_R   0.116264 0.154262 0.900904 -0.131581
C113  C     C_R   0.623871 0.358250 0.889219 -0.192920
C114  C     C_R   0.383412 0.655220 0.101604 -0.190257
C115  C     C_R   0.379469 0.354450 0.104303 -0.190572
C116  C     C_R   0.618420 0.653128 0.898912 -0.165675
C117  C     C_R   0.147923 0.858843 0.789609 0.359620
C118  C     C_R   0.864287 0.180593 0.186040 0.251987
C119  C     C_R   0.849799 0.860078 0.211002 0.341130
C120  C     C_R   0.134173 0.181823 0.814619 0.239151
C121  C     C_R   0.632242 0.318250 0.812633 0.284745
C122  C     C_R   0.370480 0.686739 0.185410 0.347209
C123  C     C_R   0.350589 0.347147 0.197412 0.290433
C124  C     C_R   0.631832 0.686506 0.816202 0.304694
C125  C     C_R   0.185464 0.801733 0.762244 -0.190105
C126  C     C_R   0.811502 0.205312 0.234744 -0.229353
C127  C     C_R   0.806540 0.811006 0.245491 -0.186906
C128  C     C_R   0.187563 0.203926 0.765310 -0.221433
C129  C     C_R   0.678399 0.277579 0.769901 -0.127778
C130  C     C_R   0.323249 0.726137 0.228902 -0.159304
C131  C     C_R   0.316261 0.288380 0.233074 -0.199177
C132  C     C_R   0.680214 0.722881 0.770618 -0.167982
C133  C     C_R   0.204446 0.774024 0.823369 -0.074397
C134  C     C_R   0.778881 0.213437 0.189221 -0.086174
C135  C     C_R   0.780686 0.788760 0.192915 -0.109006
C136  C     C_R   0.220086 0.209485 0.810660 -0.088083
C137  C     C_R   0.702030 0.251017 0.822110 -0.066893
C138  C     C_R   0.299994 0.755893 0.176923 -0.053925
C139  C     C_R   0.297025 0.253854 0.177862 -0.056650
C140  C     C_R   0.708332 0.744618 0.818798 -0.093119
C141  C     C_R   0.199007 0.813081 0.897800 -0.006359
C142  C     C_R   0.801758 0.200603 0.096891 -0.003220
C143  C     C_R   0.802272 0.805866 0.102518 -0.011266
C144  C     C_R   0.195860 0.203258 0.904228 0.006326
C145  C     C_R   0.694820 0.288757 0.898647 -0.013738
C146  C     C_R   0.309240 0.723877 0.096309 0.016262
C147  C     C_R   0.311096 0.281837 0.092442 0.002278
C148  C     C_R   0.696941 0.711955 0.901175 -0.003221
C149  C     C_R   0.165803 0.915049 0.989967 0.394204
C150  C     C_R   0.873833 0.162904 0.959176 0.397407
C151  C     C_R   0.844283 0.896768 0.994580 0.378446
C152  C     C_R   0.121338 0.173831 0.044019 0.404827
C153  C     C_R   0.661351 0.389949 0.995050 0.379666
C154  C     C_R   0.365352 0.655861 0.968546 0.320185
C155  C     C_R   0.376529 0.336204 0.958769 0.327483
C156  C     C_R   0.635649 0.650522 0.032860 0.420884
C157  C     C_R   0.189755 0.892291 0.043415 -0.256929
C158  C     C_R   0.840806 0.165765 0.917369 -0.168057
C159  C     C_R   0.826047 0.866313 0.938001 -0.241158
C160  C     C_R   0.153107 0.181384 0.087567 -0.174081
C161  C     C_R   0.681854 0.362053 0.050684 -0.249686
C162  C     C_R   0.327731 0.661072 0.936598 -0.229223
C163  C     C_R   0.342233 0.331625 0.920225 -0.237611
C164  C     C_R   0.673428 0.650335 0.064868 -0.176215
C165  C     C_R   0.225041 0.705946 0.818158 0.446929
C166  C     C_R   0.726278 0.241354 0.227891 0.397281
C167  C     C_R   0.730418 0.755921 0.228503 0.387539
C168  C     C_R   0.274677 0.227805 0.769085 0.397358
C169  C     C_R   0.730496 0.186661 0.803642 0.377082
C170  C     C_R   0.273153 0.821399 0.196693 0.357545
C171  C     C_R   0.261647 0.195632 0.204699 0.374142
C172  C     C_R   0.746008 0.800341 0.790234 0.432800
C173  C     C_R   0.254352 0.686685 0.862653 -0.167287
C174  C     C_R   0.709282 0.281115 0.175070 -0.233606
C175  C     C_R   0.717102 0.712990 0.175108 -0.231381
C176  C     C_R   0.295905 0.265247 0.816192 -0.217845
C177  C     C_R   0.763640 0.172613 0.843719 -0.270442
C178  C     C_R   0.243193 0.842291 0.152408 -0.188969
C179  C     C_R   0.227546 0.185610 0.165668 -0.264763
C180  C     C_R   0.781401 0.807338 0.826499 -0.236569
H9    H     H_    0.187685 0.927741 0.094383 0.186678
H10   H     H_    0.858369 0.157967 0.846342 0.200231
H11   H     H_    0.830631 0.897941 0.881725 0.193461
H12   H     H_    0.134128 0.178481 0.159294 0.174370
H13   H     H_    0.679985 0.393398 0.105445 0.184860
H14   H     H_    0.339740 0.641593 0.870416 0.177452
H15   H     H_    0.356583 0.351946 0.853517 0.181237
H16   H     H_    0.662340 0.623561 0.127258 0.180573
H17   H     H_    0.269554 0.633371 0.854119 0.168072
H18   H     H_    0.671263 0.307602 0.206760 0.199862
H19   H     H_    0.680336 0.684707 0.209429 0.187870
H20   H     H_    0.336655 0.281843 0.779449 0.207132
H21   H     H_    0.786538 0.124283 0.827014 0.197125
H22   H     H_    0.222407 0.891629 0.172622 0.174979
H23   H     H_    0.199550 0.142345 0.189529 0.169877
H24   H     H_    0.813675 0.843705 0.793115 0.182188
O33   O     O_R   0.051640 0.926880 0.885090 -0.504978
O34   O     O_R   0.948360 0.073120 0.114910 -0.512637
O35   O     O_R   0.948360 0.926880 0.114910 -0.504908
O36   O     O_R   0.051640 0.073120 0.885090 -0.519884
O37   O     O_R   0.551640 0.426880 0.885090 -0.521515
O38   O     O_R   0.448360 0.573120 0.114910 -0.486528
O39   O     O_R   0.448360 0.426880 0.114910 -0.522123
O40   O     O_R   0.551640 0.573120 0.885090 -0.517666
Cu9   Cu    Cu3+1 0.495240 0.500000 0.924150 1.231140
Cu10  Cu    Cu3+1 0.504760 0.500000 0.075850 1.248624
Cu11  Cu    Cu3+1 0.995240 0.000000 0.924150 1.246753
Cu12  Cu    Cu3+1 0.004760 0.000000 0.075850 1.230865
C181  C     C_R   0.921374 0.913371 0.071495 0.828979
C182  C     C_R   0.072198 0.099774 0.935283 0.852972
C183  C     C_R   0.079766 0.916781 0.927441 0.828324
C184  C     C_R   0.926634 0.098331 0.065542 0.852856
C185  C     C_R   0.425518 0.404113 0.066821 0.839972
C186  C     C_R   0.573794 0.598267 0.934029 0.863839
C187  C     C_R   0.576163 0.406209 0.931249 0.851748
C188  C     C_R   0.426696 0.598827 0.065708 0.852049
O41   O     O_R   0.940620 0.926560 0.986760 -0.574810
O42   O     O_R   0.059380 0.073440 0.013240 -0.542380
O43   O     O_R   0.059380 0.926560 0.013240 -0.576272
O44   O     O_R   0.940620 0.073440 0.986760 -0.546461
O45   O     O_R   0.440620 0.426560 0.986760 -0.581895
O46   O     O_R   0.559380 0.573440 0.013240 -0.537852
O47   O     O_R   0.559380 0.426560 0.013240 -0.571738
O48   O     O_R   0.440620 0.573440 0.986760 -0.576209
S1    S     S_3+6 0.523004 0.727296 0.596532 0.148186
O49   O     O_2   0.500873 0.670521 0.560712 -0.160264
O50   O     O_2   0.582259 0.721207 0.551012 -0.209186
O51   O     O_3   0.502468 0.714321 0.705121 -0.331069
H25   H     H_    0.499303 0.762217 0.729888 0.374614
S2    S     S_3+6 0.481183 0.264101 0.406602 0.091095
O52   O     O_2   0.487685 0.241717 0.316872 -0.285637
O53   O     O_2   0.428037 0.298894 0.455583 -0.225244
O54   O     O_3   0.529468 0.322167 0.392252 -0.432924
H26   H     H_    0.524305 0.361674 0.357996 0.386056
S3    S     S_3+6 0.395904 0.750614 0.648577 0.041473
O55   O     O_2   0.345665 0.786920 0.710958 -0.330558
O56   O     O_2   0.385451 0.711217 0.580742 -0.273987
O57   O     O_3   0.410516 0.692203 0.709832 -0.420333
H27   H     H_    0.391413 0.648510 0.709491 0.380995
S4    S     S_3+6 0.513840 0.267532 0.577096 0.107339
O58   O     O_2   0.467719 0.313675 0.588492 -0.186156
O59   O     O_2   0.506722 0.244489 0.667359 -0.229391
O60   O     O_3   0.570218 0.314330 0.527363 -0.466407
H28   H     H_    0.566466 0.352926 0.568987 0.393346
S5    S     S_3+6 0.009578 0.247286 0.634797 0.122197
O61   O     O_2   0.964617 0.195314 0.668533 -0.171460
O62   O     O_2   0.061035 0.208440 0.586201 -0.198456
O63   O     O_3   0.009222 0.288794 0.722681 -0.413445
H29   H     H_    0.975607 0.315945 0.747929 0.351527
S6    S     S_3+6 0.984047 0.760095 0.368274 0.067162
O64   O     O_2   0.985554 0.756255 0.278099 -0.228939
O65   O     O_2   0.927977 0.773077 0.436531 -0.295974
O66   O     O_3   0.020876 0.828615 0.371646 -0.446766
H30   H     H_    0.008655 0.869281 0.348232 0.384100
S7    S     S_3+6 0.936794 0.228233 0.523758 0.071443
O67   O     O_2   0.888151 0.207320 0.606108 -0.291938
O68   O     O_2   0.922389 0.235485 0.448072 -0.220709
O69   O     O_3   0.983304 0.165018 0.498028 -0.448605
H31   H     H_    0.965864 0.121472 0.491957 0.389221
S8    S     S_3+6 0.112418 0.727985 0.306760 0.034608
O70   O     O_2   0.120614 0.786965 0.358528 -0.290607
O71   O     O_2   0.163156 0.686766 0.262253 -0.324757
O72   O     O_3   0.098380 0.761430 0.226700 -0.444377
H32   H     H_    0.122097 0.802751 0.202912 0.369469
S9    S     S_3+6 0.232557 0.002389 0.573701 0.085126
O73   O     O_2   0.200832 0.997373 0.521936 -0.174355
O74   O     O_2   0.223155 0.940060 0.634143 -0.344400
O75   O     O_3   0.212887 0.073875 0.637835 -0.510013
H33   H     H_    0.190885 0.056289 0.698850 0.382304
S10   S     S_3+6 0.760608 0.002641 0.426642 0.073968
O76   O     O_2   0.795906 0.002881 0.472334 -0.215788
O77   O     O_2   0.769563 0.938922 0.370048 -0.300669
O78   O     O_3   0.775258 0.073252 0.359425 -0.528823
H34   H     H_    0.800392 0.056347 0.299974 0.381624
S11   S     S_3+6 0.730585 0.503578 0.582901 0.046607
O79   O     O_2   0.719422 0.567675 0.640227 -0.307969
O80   O     O_2   0.696655 0.504981 0.534594 -0.227872
O81   O     O_3   0.714762 0.432533 0.650018 -0.561002
H35   H     H_    0.677328 0.440094 0.693509 0.379695
S12   S     S_3+6 0.201376 0.494390 0.630170 0.060935
O82   O     O_2   0.258948 0.512047 0.599169 -0.204269
O83   O     O_2   0.164306 0.546463 0.692865 -0.220205
O84   O     O_3   0.188251 0.416305 0.684163 -0.569179
H36   H     H_    0.200464 0.421555 0.730668 0.360349
S13   S     S_3+6 0.115026 0.896882 0.722126 0.111363
O85   O     O_2   0.062185 0.860390 0.753469 -0.276313
O86   O     O_2   0.106976 0.974605 0.741082 -0.242772
O87   O     O_3   0.139851 0.896021 0.610830 -0.404356
H37   H     H_    0.110535 0.912176 0.597622 0.372612
S14   S     S_3+6 0.914825 0.212577 0.211322 0.112272
O88   O     O_2   0.927651 0.158607 0.264794 -0.141039
O89   O     O_2   0.962274 0.225617 0.124676 -0.220866
O90   O     O_3   0.898116 0.289071 0.267048 -0.489990
H38   H     H_    0.891347 0.322255 0.227442 0.331239
S15   S     S_3+6 0.880525 0.901692 0.278357 0.110526
O91   O     O_2   0.933655 0.867216 0.251329 -0.246409
O92   O     O_2   0.887738 0.979026 0.255386 -0.260665
O93   O     O_3   0.853933 0.901576 0.389704 -0.382748
H39   H     H_    0.882846 0.916732 0.404240 0.376323
S16   S     S_3+6 0.084821 0.213494 0.786465 0.122489
O94   O     O_2   0.073477 0.159224 0.732710 -0.111557
O95   O     O_2   0.035894 0.226728 0.870746 -0.213229
O96   O     O_3   0.103657 0.289920 0.729490 -0.495090
H40   H     H_    0.104069 0.324569 0.772854 0.364025
S17   S     S_3+6 0.577654 0.292410 0.794937 0.121450
O97   O     O_2   0.531286 0.285384 0.884500 -0.203498
O98   O     O_2   0.566434 0.347129 0.740320 -0.232438
O99   O     O_3   0.587847 0.213578 0.745214 -0.443806
H41   H     H_    0.597079 0.224274 0.682579 0.359881
S18   S     S_3+6 0.420699 0.698688 0.220815 0.112950
O100  O     O_2   0.422179 0.636434 0.275589 -0.206201
O101  O     O_2   0.472648 0.705543 0.139777 -0.215326
O102  O     O_3   0.410657 0.772828 0.280327 -0.475285
H42   H     H_    0.439450 0.773488 0.299042 0.392623
S19   S     S_3+6 0.342585 0.422842 0.265311 0.048612
O103  O     O_2   0.380970 0.418880 0.305098 -0.168270
O104  O     O_2   0.352319 0.489808 0.211990 -0.328203
O105  O     O_3   0.280448 0.426730 0.347123 -0.548333
H43   H     H_    0.257423 0.430675 0.316652 0.319161
S20   S     S_3+6 0.581428 0.703799 0.784169 0.088494
O106  O     O_2   0.579700 0.645175 0.725991 -0.134102
O107  O     O_2   0.529491 0.708383 0.865606 -0.237715
O108  O     O_3   0.592711 0.781176 0.729569 -0.566844
H44   H     H_    0.586230 0.817467 0.775183 0.373029
N1    N     N_R   0.151430 0.987621 0.994112 0.113992
O109  O     O_R   0.132544 0.020342 0.069549 -0.369237
O110  O     O_R   0.169583 0.024063 0.920792 -0.423687
N2    N     N_R   0.927353 0.183654 0.906080 0.134499
O111  O     O_R   0.956483 0.148304 0.835020 -0.214296
O112  O     O_R   0.939205 0.249008 0.911840 -0.303546
N3    N     N_R   0.854145 0.971365 0.986333 0.124163
O113  O     O_R   0.875170 0.001686 0.908621 -0.352223
O114  O     O_R   0.834188 0.010275 0.056916 -0.417531
N4    N     N_R   0.067000 0.190614 0.095151 0.131079
O115  O     O_R   0.038928 0.151450 0.163911 -0.253996
O116  O     O_R   0.054784 0.256952 0.096498 -0.282318
N5    N     N_R   0.650466 0.464011 0.999673 0.116766
O117  O     O_R   0.632641 0.496235 0.075338 -0.368246
O118  O     O_R   0.665337 0.500817 0.926971 -0.413881
N6    N     N_R   0.418167 0.667936 0.902537 0.176586
O119  O     O_R   0.440162 0.623059 0.838313 -0.256331
O120  O     O_R   0.434774 0.732843 0.890225 -0.280250
N7    N     N_R   0.430143 0.320204 0.899699 0.169528
O121  O     O_R   0.442592 0.253637 0.889423 -0.221970
O122  O     O_R   0.455761 0.363105 0.833671 -0.255162
N8    N     N_R   0.583296 0.666971 0.098196 0.143742
O123  O     O_R   0.559830 0.625416 0.166570 -0.264886
O124  O     O_R   0.568992 0.732816 0.105300 -0.272958
S21   S     S_3+6 0.198441 0.635856 0.788454 0.053795
O125  O     O_2   0.150200 0.658362 0.777845 -0.258793
O126  O     O_2   0.242532 0.611620 0.703356 -0.220048
O127  O     O_3   0.181823 0.571339 0.865507 -0.511781
H45   H     H_    0.188659 0.526663 0.832225 0.383913
S22   S     S_3+6 0.673144 0.198220 0.316002 0.030079
O128  O     O_2   0.649611 0.246976 0.393429 -0.207114
O129  O     O_2   0.630601 0.180748 0.288145 -0.271134
O130  O     O_3   0.692991 0.123134 0.344820 -0.527739
H46   H     H_    0.700158 0.090523 0.295140 0.366708
S23   S     S_3+6 0.674694 0.798471 0.311605 0.047610
O131  O     O_2   0.635761 0.816835 0.275781 -0.251699
O132  O     O_2   0.648178 0.748346 0.387779 -0.198423
O133  O     O_3   0.691804 0.872738 0.345741 -0.526185
H47   H     H_    0.701403 0.906443 0.295688 0.366152
S24   S     S_3+6 0.322923 0.176427 0.684903 0.023027
O134  O     O_2   0.353195 0.222625 0.605756 -0.227110
O135  O     O_2   0.361601 0.148058 0.716633 -0.262493
O136  O     O_3   0.295507 0.108096 0.658669 -0.546714
H48   H     H_    0.284912 0.074923 0.709460 0.374141
S25   S     S_3+6 0.710737 0.111670 0.762890 0.087512
O137  O     O_2   0.675116 0.129252 0.720608 -0.276449
O138  O     O_2   0.759053 0.073847 0.697190 -0.243024
O139  O     O_3   0.676357 0.057861 0.849476 -0.402638
H49   H     H_    0.695239 0.058872 0.887041 0.351051
S26   S     S_3+6 0.294933 0.891812 0.241453 0.090629
O140  O     O_2   0.327888 0.869418 0.286998 -0.273181
O141  O     O_2   0.329164 0.938035 0.164512 -0.155236
O142  O     O_3   0.242365 0.938431 0.311887 -0.449976
H50   H     H_    0.217558 0.902964 0.352677 0.354718
S27   S     S_3+6 0.273934 0.118631 0.252429 0.088075
O143  O     O_2   0.282029 0.059672 0.188964 -0.194267
O144  O     O_2   0.322830 0.125654 0.266658 -0.269104
O145  O     O_3   0.221099 0.099458 0.348903 -0.449001
H51   H     H_    0.193054 0.084278 0.332323 0.347070
S28   S     S_3+6 0.737279 0.879843 0.741670 0.061607
O146  O     O_2   0.686668 0.879987 0.731917 -0.299391
O147  O     O_2   0.735761 0.939132 0.801184 -0.238210
O148  O     O_3   0.789789 0.892299 0.642571 -0.494461
H52   H     H_    0.786713 0.941696 0.625975 0.409440

loop_
_geom_bond_atom_site_label_1
_geom_bond_atom_site_label_2
_geom_bond_distance
_ccdc_geom_bond_type
S27   O143  1.499027 D    
O37   Cu9   1.986461 S    
C150  C158  1.392580 A    
Cu2   Cu5   2.684472 S    
O142  H50   0.990250 S    
O60   H28   0.990365 S    
C155  C163  1.383795 A    
C70   H2    1.071960 S    
S7    O68   1.503500 D    
C167  S23   1.768945 S    
S13   O85   1.506520 D    
C20   C34   1.412363 A    
C110  C118  1.414287 A    
C122  C130  1.413477 A    
C166  S22   1.766864 S    
O139  H49   0.990049 S    
C77   C98   1.415938 A    
S21   O126  1.493972 D    
Cu11  O44   1.996068 S    
Cu6   O22   1.985295 S    
S1    O51   1.670858 S    
C6    O22   1.314342 A    
S18   O102  1.682746 S    
S23   O133  1.676262 S    
C153  C161  1.399109 A    
C90   C178  1.412531 A    
C82   C93   1.407017 A    
S12   O82   1.501860 D    
C166  C174  1.396599 A    
C164  H16   1.076686 S    
N2    O112  1.300201 A    
C116  C186  1.531774 S    
O3    Cu3   1.980766 S    
O81   H35   0.990616 S    
C50   C76   1.417883 A    
C76   H8    1.072020 S    
C19   C33   1.412788 A    
C55   C62   1.419356 A    
C119  S15   1.882585 S    
O15   Cu7   1.969994 S    
C152  C160  1.392601 A    
C33   C35   1.420880 A    
C36   C43   1.412258 A    
O25   C9    1.299739 A    
S20   O106  1.503157 D    
O35   C181  1.293046 A    
C17   C76   1.422869 A    
C105  C153  1.420083 A    
C37   C39   1.408833 A    
C135  C167  1.411538 A    
C26   S7    1.787164 S    
C118  C126  1.420135 A    
C31   S2    1.781294 S    
C75   H7    1.076582 S    
C32   S1    1.784184 S    
S4    O60   1.679347 S    
C181  O41   1.303732 A    
C3    C132  1.505328 S    
C53   C61   1.401978 A    
C72   H4    1.062460 S    
C1    C130  1.506636 S    
C81   C94   1.408054 A    
C45   C71   1.404449 A    
O66   H30   0.990630 S    
C150  N2    1.422114 S    
O75   H33   0.990185 S    
C168  C176  1.386349 A    
C156  N8    1.428245 S    
C102  C142  1.410799 A    
C38   C42   1.408798 A    
S7    O67   1.503705 D    
C180  H24   1.077009 S    
C156  C164  1.387890 A    
O69   H31   0.990813 S    
O13   Cu5   1.973547 S    
O37   C187  1.304209 A    
C64   S12   1.746107 S    
O38   C188  1.316524 A    
C57   C63   1.400475 A    
C160  H12   1.083014 S    
C120  C128  1.417935 A    
S28   O146  1.502985 D    
C23   C31   1.418185 A    
C27   S6    1.784921 S    
S6    O64   1.502028 D    
C82   C90   1.419234 A    
C106  C114  1.443206 A    
C8    O24   1.303579 A    
C127  C135  1.438436 A    
S13   O87   1.684491 S    
C128  C136  1.432285 A    
C96   C163  1.396977 A    
S10   O78   1.675496 S    
C83   C147  1.418930 A    
C50   C58   1.450814 A    
O87   H37   0.991128 S    
O2    C13   1.323471 A    
C80   C99   1.407273 A    
C87   C175  1.407719 A    
C101  C141  1.393651 A    
N1    O110  1.300011 A    
C104  C144  1.413183 A    
Cu3   O19   1.979007 S    
O130  H46   0.990572 S    
O10   Cu2   1.973547 S    
S16   O94   1.501561 D    
C111  C119  1.435154 A    
C112  C120  1.405694 A    
N8    O123  1.301943 A    
C130  C138  1.417066 A    
C29   S4    1.783921 S    
O5    Cu5   1.983778 S    
C78   C86   1.404540 A    
O78   H34   0.990076 S    
C175  H19   1.076333 S    
C134  C142  1.416711 A    
C80   C144  1.420252 A    
C170  C178  1.404287 A    
S20   O108  1.679304 S    
C84   C148  1.437893 A    
C30   S3    1.806181 S    
C103  C111  1.432131 A    
O40   Cu9   1.985946 S    
N5    O118  1.301095 A    
C16   C55   1.518550 S    
C49   C75   1.398996 A    
C157  H9    1.075679 S    
O96   H40   0.990348 S    
C126  C134  1.439706 A    
O15   C4    1.308102 A    
C18   C36   1.403539 A    
C170  S26   1.777325 S    
O33   Cu11  1.986461 S    
C104  C152  1.417104 A    
C34   C36   1.405644 A    
C22   C40   1.403786 A    
S24   O134  1.498547 D    
O7    C12   1.322876 A    
Cu2   O26   1.987913 S    
Cu9   Cu10  2.683093 S    
C38   C40   1.411131 A    
C35   C44   1.412622 A    
S9    O74   1.498335 D    
Cu9   O48   1.996068 S    
Cu10  O47   1.996070 S    
C71   H3    1.062191 S    
C78   C142  1.416452 A    
S10   O77   1.495589 D    
C100  C159  1.411143 A    
C19   C27   1.428821 A    
C45   C53   1.417972 A    
S28   O148  1.681752 S    
C22   C71   1.401371 A    
C163  H15   1.078762 S    
N6    O119  1.301923 A    
C86   C174  1.397041 A    
C47   C55   1.439929 A    
C184  O44   1.297371 A    
C185  O45   1.288891 A    
O40   C186  1.326009 A    
C113  C121  1.428184 A    
O35   Cu12  1.985945 S    
O28   C12   1.282787 A    
O16   C3    1.317534 A    
C187  O47   1.306426 A    
O29   C13   1.282658 A    
C111  C181  1.479566 S    
S3    O57   1.676952 S    
C123  C131  1.419774 A    
C46   C66   1.415595 A    
C133  C141  1.409766 A    
C98   C157  1.407150 A    
C107  C155  1.416501 A    
C121  C129  1.403992 A    
C158  H10   1.083479 S    
S25   O138  1.502408 D    
C78   C97   1.407014 A    
S8    O71   1.503912 D    
Cu5   O29   1.987912 S    
C7    C128  1.500371 S    
C8    C127  1.466087 S    
C41   C65   1.417818 A    
C92   C180  1.401209 A    
Cu7   O31   1.987234 S    
Cu8   O32   1.987234 S    
C183  O43   1.310829 A    
C109  C117  1.440420 A    
O39   Cu10  1.985945 S    
C107  C115  1.433010 A    
C30   C32   1.424746 A    
S16   O96   1.682777 S    
C79   C143  1.435236 A    
S11   O80   1.503251 D    
S4    O59   1.502935 D    
S5    O61   1.501286 D    
C155  N7    1.423092 S    
C113  C187  1.512643 S    
C88   C176  1.400706 A    
Cu4   Cu7   2.693544 S    
C114  C188  1.529723 S    
C28   S5    1.776650 S    
C81   C89   1.408442 A    
C118  S14   1.764906 S    
S18   O101  1.497073 D    
C176  H20   1.079128 S    
C4    O20   1.297206 A    
O133  H47   0.990644 S    
O9    C6    1.287146 A    
O26   C10   1.294999 A    
O36   C182  1.321488 A    
O39   C185  1.312800 A    
O11   C8    1.291799 A    
Cu4   O28   1.987234 S    
S14   O89   1.495843 D    
S15   O92   1.504870 D    
O12   C7    1.313645 A    
S26   O140  1.499518 D    
S19   O105  1.679290 S    
O13   C2    1.302723 A    
C116  C124  1.414847 A    
C5    O21   1.291064 A    
C182  O42   1.292868 A    
C119  C127  1.433256 A    
S22   O128  1.497798 D    
C2    C129  1.498597 S    
C11   C60   1.497337 S    
N7    O122  1.301551 A    
C13   C54   1.503090 S    
C117  S13   1.892027 S    
C138  C146  1.406436 A    
S24   O136  1.669642 S    
C34   C44   1.413616 A    
O127  H45   0.990202 S    
C39   C42   1.410290 A    
S8    O72   1.682172 S    
C95   C164  1.402994 A    
C154  N6    1.423316 S    
S14   O90   1.683389 S    
O1    Cu1   1.983778 S    
O14   Cu6   1.973547 S    
C50   C68   1.419170 A    
S21   O125  1.504420 D    
C48   C65   1.419487 A    
C24   C69   1.416354 A    
C109  C183  1.480223 S    
O34   Cu12  1.986458 S    
C21   C39   1.399922 A    
O7    Cu7   1.980766 S    
S28   O147  1.500486 D    
S1    O50   1.497809 D    
C33   C43   1.411235 A    
C42   C66   1.418499 A    
C99   C160  1.393823 A    
C121  S17   1.760023 S    
C83   C91   1.406388 A    
C73   H5    1.069873 S    
O51   H25   0.990032 S    
S26   O142  1.681234 S    
S3    O55   1.503938 D    
S2    O52   1.503590 D    
C133  C165  1.400741 A    
C94   C161  1.399304 A    
C51   C59   1.415603 A    
C21   C72   1.403459 A    
C169  C177  1.395511 A    
O38   Cu10  1.986458 S    
C48   C56   1.442666 A    
N4    O115  1.301047 A    
C149  C157  1.406446 A    
C5    C126  1.502425 S    
S15   O91   1.503812 D    
S20   O107  1.498006 D    
S17   O97   1.497957 D    
O36   Cu11  1.985946 S    
C69   H1    1.063113 S    
N3    O113  1.301687 A    
N2    O111  1.300831 A    
O11   Cu3   1.969994 S    
Cu1   O17   1.985294 S    
C89   C97   1.408167 A    
C108  C148  1.425485 A    
C79   C87   1.416899 A    
S5    O63   1.677984 S    
C80   C88   1.407356 A    
C136  C168  1.418619 A    
S3    O56   1.504279 D    
C177  H21   1.083370 S    
O108  H44   0.990367 S    
O6    Cu6   1.983776 S    
C129  C137  1.405567 A    
C172  C180  1.386280 A    
C91   C179  1.401274 A    
C151  N3    1.436350 S    
O105  H43   0.990655 S    
C14   C53   1.503453 S    
C132  C140  1.424644 A    
S17   O98   1.503447 D    
C165  C173  1.383625 A    
Cu9   O45   1.990467 S    
C25   C27   1.429303 A    
S2    O54   1.681877 S    
C85   C173  1.390127 A    
S19   O103  1.502939 D    
C136  C144  1.415638 A    
C17   C35   1.408612 A    
C115  C123  1.415174 A    
C79   C100  1.413466 A    
C48   C70   1.412927 A    
C124  C132  1.409293 A    
C84   C95   1.412452 A    
S13   O86   1.506022 D    
C59   C64   1.381059 A    
C125  C133  1.447621 A    
C188  O48   1.303656 A    
C56   C61   1.413225 A    
S6    O65   1.503662 D    
S12   O84   1.684708 S    
C106  C154  1.412266 A    
Cu3   O27   1.987234 S    
S7    O69   1.682554 S    
C140  C172  1.420239 A    
S21   O127  1.684151 S    
C152  N4    1.418029 S    
C15   C56   1.500399 S    
Cu11  O41   1.990467 S    
C60   C63   1.425789 A    
S11   O79   1.502285 D    
C167  C175  1.387266 A    
S6    O66   1.681347 S    
O84   H36   0.990322 S    
C25   S8    1.790583 S    
C186  O46   1.294104 A    
C138  C170  1.414895 A    
C114  C122  1.427539 A    
C37   C41   1.402370 A    
O30   C14   1.292044 A    
C112  C182  1.516544 S    
C63   S11   1.789676 S    
Cu6   O30   1.987913 S    
Cu12  O43   1.996070 S    
O4    C15   1.316235 A    
O5    C10   1.311734 A    
S17   O99   1.680622 S    
S27   O144  1.502984 D    
N5    O117  1.300833 A    
C169  S25   1.778448 S    
C102  C110  1.425127 A    
C51   C68   1.409376 A    
C17   C25   1.420628 A    
C82   C146  1.431500 A    
C47   C69   1.414544 A    
C84   C92   1.416275 A    
C85   C93   1.412027 A    
Cu1   Cu6   2.684472 S    
C3    O19   1.295950 A    
C131  C139  1.429760 A    
S24   O135  1.504569 D    
Cu3   Cu8   2.693544 S    
C88   C96   1.414068 A    
C123  S19   1.793475 S    
O10   C5    1.315002 A    
O27   C11   1.296790 A    
S9    O73   1.501872 D    
C19   C74   1.428301 A    
C168  S24   1.762716 S    
C44   C68   1.420162 A    
C153  N5    1.432076 S    
C162  H14   1.078983 S    
O14   C1    1.304749 A    
O33   C183  1.291133 A    
C4    C131  1.489462 S    
O34   C184  1.316762 A    
C49   C67   1.410306 A    
Cu4   O20   1.979006 S    
Cu5   O21   1.985294 S    
C20   C28   1.423312 A    
N6    O120  1.300040 A    
C105  C113  1.431385 A    
C171  C179  1.396196 A    
C101  C109  1.435826 A    
C93   C162  1.402163 A    
C102  C150  1.418304 A    
C172  S28   1.776589 S    
C83   C96   1.410514 A    
C26   C28   1.403216 A    
O72   H32   0.990127 S    
C104  C112  1.428981 A    
O2    Cu2   1.983776 S    
C92   C100  1.428554 A    
S25   O137  1.498924 D    
N7    O121  1.301396 A    
C139  C171  1.418761 A    
O90   H38   0.990600 S    
C91   C99   1.411743 A    
C137  C169  1.416468 A    
C149  N1    1.426784 S    
C90   C98   1.442439 A    
C179  H23   1.082758 S    
O57   H27   0.990500 S    
C110  C184  1.517926 S    
N3    O114  1.300825 A    
C86   C94   1.410610 A    
C117  C125  1.438431 A    
C178  H22   1.076287 S    
C165  S21   1.710803 S    
C29   C31   1.414434 A    
O145  H51   0.990334 S    
C46   C54   1.440925 A    
O8    Cu8   1.980768 S    
C9    C58   1.523405 S    
C174  H18   1.083773 S    
C115  C185  1.494861 S    
C18   C26   1.404666 A    
C173  H17   1.082117 S    
C7    O23   1.296749 A    
C89   C177  1.401482 A    
S23   O131  1.504196 D    
C6    C125  1.493021 S    
S23   O132  1.496334 D    
O16   Cu8   1.969994 S    
S26   O141  1.500700 D    
S19   O104  1.502729 D    
C22   C30   1.420807 A    
O12   Cu4   1.969994 S    
C20   C73   1.399107 A    
C154  C162  1.385934 A    
C45   C65   1.404023 A    
S16   O95   1.496737 D    
C97   C158  1.394384 A    
C2    O18   1.302824 A    
S22   O129  1.504515 D    
S27   O145  1.681926 S    
Cu1   O25   1.987912 S    
C103  C151  1.416276 A    
S12   O83   1.486857 D    
S9    O75   1.673474 S    
O54   H26   0.990472 S    
Cu10  O46   1.990467 S    
C51   C73   1.405328 A    
C49   C57   1.415486 A    
C74   H6    1.074108 S    
C46   C72   1.423908 A    
O1    C14   1.313850 A    
S10   O76   1.501283 D    
S22   O130  1.672608 S    
O3    C16   1.322380 A    
C52   C67   1.411354 A    
O136  H48   0.990693 S    
C171  S27   1.766407 S    
C77   C85   1.406772 A    
C103  C143  1.396635 A    
C151  C159  1.395888 A    
S1    O49   1.503047 D    
C105  C145  1.419295 A    
Cu2   O18   1.985295 S    
O8    C11   1.313574 A    
C140  C148  1.414730 A    
N8    O124  1.300860 A    
C61   S9    1.770405 S    
C122  S18   1.775193 S    
O9    Cu1   1.973547 S    
C62   S10   1.769795 S    
C18   C75   1.384838 A    
S2    O53   1.502542 D    
Cu11  Cu12  2.683093 S    
C108  C156  1.413004 A    
S25   O139  1.682515 S    
C24   C38   1.411751 A    
S8    O70   1.503630 D    
C52   C60   1.447814 A    
O31   C15   1.295440 A    
C23   C37   1.411470 A    
C21   C29   1.418504 A    
O32   C16   1.297791 A    
Cu12  O42   1.990467 S    
O63   H29   0.991524 S    
C10   C57   1.500924 S    
N4    O116  1.300862 A    
C139  C147  1.410333 A    
C137  C145  1.413089 A    
C40   C41   1.418774 A    
C135  C143  1.400830 A    
C81   C145  1.411118 A    
O4    Cu4   1.980768 S    
O102  H42   0.990556 S    
C12   C59   1.495158 S    
S11   O81   1.679758 S    
S4    O58   1.502912 D    
C23   C70   1.410906 A    
S5    O62   1.502729 D    
N1    O109  1.301114 A    
C120  S16   1.755993 S    
C159  H11   1.075230 S    
O93   H39   0.991262 S    
C47   C66   1.413706 A    
Cu7   O23   1.979007 S    
C124  S20   1.754498 S    
C87   C95   1.425955 A    
O99   H41   0.986879 S    
Cu8   O24   1.979006 S    
C43   C67   1.421885 A    
C24   C32   1.430277 A    
O6    C9    1.318277 A    
S18   O100  1.503573 D    
C161  H13   1.082732 S    
O148  H52   0.989747 S    
C106  C146  1.425068 A    
C108  C116  1.444324 A    
S14   O88   1.502491 D    
S15   O93   1.681846 S    
C1    O17   1.303938 A    
C134  C166  1.427514 A    
C77   C141  1.439836 A    
C52   C74   1.418021 A    
C58   C64   1.428818 A    
C107  C147  1.410067 A    
C54   C62   1.407829 A    
C101  C149  1.418802 A    
