data_str_m12_o22_o22_f0_bcu.sym.136
_audit_creation_date              2013-03-05T15:48:50-0500
_audit_creation_method            fapswitch 2.2
_symmetry_space_group_name_H-M    P1
_symmetry_Int_Tables_number       1
_space_group_crystal_system       triclinic
_cell_length_a                    17.541842
_cell_length_b                    24.262232
_cell_length_c                    15.074999
_cell_angle_alpha                 89.857306
_cell_angle_beta                  125.914637
_cell_angle_gamma                 90.219729
_cell_volume                      5196.21409176

loop_
_atom_site_label
_atom_site_type_symbol
_atom_site_description
_atom_site_fract_x
_atom_site_fract_y
_atom_site_fract_z
_atom_type_partial_charge
C1    C     C_R   0.947011 0.845838 0.089160 -0.121598
C2    C     C_R   0.945614 0.153323 0.089824 -0.091717
C3    C     C_R   0.446877 0.345852 0.089136 -0.107200
C4    C     C_R   0.446061 0.653434 0.089741 -0.100635
H1    H     H_    0.995596 0.830543 0.170783 0.110241
H2    H     H_    0.995680 0.169567 0.170622 0.111820
H3    H     H_    0.495146 0.330595 0.170841 0.106176
H4    H     H_    0.496370 0.669684 0.170489 0.113529
N1    N     N_R   0.950530 0.896220 0.057200 -0.034055
N2    N     N_R   0.950530 0.103780 0.057200 -0.042135
N3    N     N_R   0.450530 0.396220 0.057200 -0.032128
N4    N     N_R   0.450530 0.603780 0.057200 -0.041379
C5    C     C_R   0.851196 0.152441 0.908182 -0.136621
C6    C     C_R   0.853445 0.846874 0.907994 -0.110453
C7    C     C_R   0.351726 0.652579 0.908173 -0.134493
C8    C     C_R   0.353441 0.346880 0.907963 -0.114049
H5    H     H_    0.807564 0.165783 0.823710 0.113678
H6    H     H_    0.810303 0.834341 0.823112 0.096470
H7    H     H_    0.308163 0.665925 0.823691 0.112544
H8    H     H_    0.310389 0.334348 0.823080 0.097397
N5    N     N_R   0.893330 0.103780 0.942800 -0.045564
N6    N     N_R   0.893330 0.896220 0.942800 -0.036056
N7    N     N_R   0.393330 0.603780 0.942800 -0.045469
N8    N     N_R   0.393330 0.396220 0.942800 -0.034687
C9    C     C_R   0.731660 0.953831 0.751067 -0.074841
C10   C     C_R   0.732638 0.046322 0.752910 -0.015744
C11   C     C_R   0.231664 0.453837 0.751110 -0.071503
C12   C     C_R   0.232660 0.546330 0.753001 -0.015593
H9    H     H_    0.709707 0.911235 0.734241 0.099338
H10   H     H_    0.712657 0.089080 0.738889 0.097491
H11   H     H_    0.209703 0.411242 0.734286 0.099175
H12   H     H_    0.212714 0.589099 0.739097 0.096805
N9    N     N_R   0.818150 0.971400 0.792440 -0.045927
N10   N     N_R   0.818150 0.028600 0.792440 -0.048205
N11   N     N_R   0.318150 0.471400 0.792440 -0.045628
N12   N     N_R   0.318150 0.528600 0.792440 -0.048090
C13   C     C_R   0.992741 0.046738 0.261634 0.175218
C14   C     C_R   0.990277 0.954139 0.260098 0.172118
C15   C     C_R   0.491410 0.546833 0.260128 0.167329
C16   C     C_R   0.489391 0.454264 0.259255 0.196335
N13   N     N_R   0.025710 0.028600 0.207560 -0.073711
N14   N     N_R   0.025710 0.971400 0.207560 -0.072188
N15   N     N_R   0.525710 0.528600 0.207560 -0.074227
N16   N     N_R   0.525710 0.471400 0.207560 -0.074752
C17   C     C_R   0.887379 0.813972 0.998302 0.037681
C18   C     C_R   0.881936 0.183810 0.999126 0.097715
C19   C     C_R   0.387313 0.313977 0.998244 0.020484
C20   C     C_R   0.382563 0.683985 0.999066 0.103149
C21   C     C_R   0.675792 0.000223 0.724244 0.044798
C22   C     C_R   0.175802 0.500233 0.724321 0.044732
C23   C     C_R   0.962157 0.000728 0.289010 0.055582
C24   C     C_R   0.459588 0.500912 0.286405 0.057834
C25   C     C_R   0.255535 0.954278 0.304217 -0.149105
C26   C     C_R   0.255540 0.045965 0.303717 -0.165627
C27   C     C_R   0.755528 0.454280 0.304230 -0.151569
C28   C     C_R   0.755524 0.545968 0.303732 -0.165047
H13   H     H_    0.269468 0.911716 0.329977 0.098246
H14   H     H_    0.268666 0.088600 0.328789 0.107879
H15   H     H_    0.769423 0.411720 0.330013 0.100103
H16   H     H_    0.768610 0.588600 0.328828 0.107414
N17   N     N_R   0.181850 0.971400 0.207560 -0.038265
N18   N     N_R   0.181850 0.028600 0.207560 -0.041608
N19   N     N_R   0.681850 0.471400 0.207560 -0.038766
N20   N     N_R   0.681850 0.528600 0.207560 -0.041479
C29   C     C_R   0.938358 0.045127 0.691568 -0.079774
C30   C     C_R   0.942907 0.954268 0.693486 -0.092040
C31   C     C_R   0.439340 0.545257 0.691934 -0.080587
C32   C     C_R   0.444036 0.454301 0.693752 -0.086157
H17   H     H_    0.913914 0.086589 0.665880 0.167530
H18   H     H_    0.933964 0.911319 0.673510 0.174254
H19   H     H_    0.415227 0.586759 0.665946 0.164900
H20   H     H_    0.435627 0.411385 0.673232 0.173640
N21   N     N_R   0.974290 0.028600 0.792440 -0.065574
N22   N     N_R   0.974290 0.971400 0.792440 -0.062149
N23   N     N_R   0.474290 0.528600 0.792440 -0.064590
N24   N     N_R   0.474290 0.471400 0.792440 -0.060876
C33   C     C_R   0.097098 0.875413 0.907980 -0.099841
C34   C     C_R   0.097724 0.123839 0.907719 -0.113119
C35   C     C_R   0.597586 0.376097 0.908043 -0.127446
C36   C     C_R   0.597735 0.623897 0.907769 -0.112779
H21   H     H_    0.066941 0.866560 0.823371 0.153762
H22   H     H_    0.068274 0.131278 0.822667 0.131059
H23   H     H_    0.567312 0.367303 0.823451 0.162226
H24   H     H_    0.568326 0.631399 0.822748 0.131145
N25   N     N_R   0.049470 0.896220 0.942800 -0.053133
N26   N     N_R   0.049470 0.103780 0.942800 -0.038341
N27   N     N_R   0.549470 0.396220 0.942800 -0.056275
N28   N     N_R   0.549470 0.603780 0.942800 -0.038338
C37   C     C_R   0.190408 0.123625 0.091875 -0.014934
C38   C     C_R   0.190286 0.876891 0.092096 -0.116570
C39   C     C_R   0.690366 0.623689 0.091933 -0.016206
C40   C     C_R   0.690357 0.376986 0.092078 -0.095792
H25   H     H_    0.246909 0.131476 0.176545 0.103649
H26   H     H_    0.247499 0.871412 0.177181 0.093872
H27   H     H_    0.746808 0.631551 0.176620 0.103433
H28   H     H_    0.747328 0.371290 0.177185 0.096819
N29   N     N_R   0.106670 0.103780 0.057200 -0.044310
N30   N     N_R   0.106670 0.896220 0.057200 -0.045775
N31   N     N_R   0.606670 0.603780 0.057200 -0.044067
N32   N     N_R   0.606670 0.396220 0.057200 -0.049482
Ni1   Ni    Ni4+2 0.065600 0.934400 0.131190 0.208906
Ni2   Ni    Ni4+2 0.065600 0.065600 0.131190 0.231830
Ni3   Ni    Ni4+2 0.565600 0.434400 0.131190 0.210282
Ni4   Ni    Ni4+2 0.565600 0.565600 0.131190 0.231856
Ni5   Ni    Ni4+2 0.934400 0.065600 0.868810 0.259857
Ni6   Ni    Ni4+2 0.934400 0.934400 0.868810 0.241990
Ni7   Ni    Ni4+2 0.434400 0.565600 0.868810 0.260388
Ni8   Ni    Ni4+2 0.434400 0.434400 0.868810 0.239616
C41   C     C_R   0.302234 0.000216 0.366681 0.073695
C42   C     C_R   0.802234 0.500220 0.366694 0.073819
C43   C     C_R   0.917208 0.999603 0.625789 0.138834
C44   C     C_R   0.419247 0.499765 0.626653 0.130897
C45   C     C_R   0.185430 0.861374 0.000250 0.054719
C46   C     C_R   0.186772 0.137174 0.999781 0.005138
C47   C     C_R   0.686181 0.362209 0.000179 0.037701
C48   C     C_R   0.686750 0.637255 0.999873 0.004589
C49   C     C_3   0.882311 0.053992 0.360557 0.083739
C50   C     C_3   0.877959 0.948476 0.357307 0.067114
C51   C     C_3   0.381980 0.554977 0.360396 0.068603
C52   C     C_3   0.371427 0.450479 0.351922 0.075947
H29   H     H_    0.920974 0.091018 0.367179 0.133403
H30   H     H_    0.924749 0.912437 0.384811 0.151112
H31   H     H_    0.419531 0.592007 0.364920 0.132020
H32   H     H_    0.413556 0.412749 0.372790 0.146878
C53   C     C_3   0.879438 0.056860 0.461658 0.057244
C54   C     C_3   0.851038 0.954473 0.438518 0.080202
C55   C     C_3   0.382938 0.557889 0.464397 0.064522
C56   C     C_3   0.348765 0.456041 0.437706 0.072535
H33   H     H_    0.805734 0.062033 0.434644 0.166721
H34   H     H_    0.777226 0.969542 0.392175 0.170521
H35   H     H_    0.310861 0.564690 0.441409 0.168995
H36   H     H_    0.276623 0.472800 0.397365 0.180997
H37   H     H_    0.072327 0.038365 0.496712 0.240955
H38   H     H_    0.078989 0.965817 0.486905 0.210247
H39   H     H_    0.572439 0.535908 0.494814 0.241112
H40   H     H_    0.575090 0.463451 0.482349 0.210385
H41   H     H_    0.069903 0.016846 0.641883 0.221129
H42   H     H_    0.040469 0.947053 0.601113 0.234776
H43   H     H_    0.571423 0.514056 0.640756 0.220388
H44   H     H_    0.537895 0.444946 0.597201 0.236223
C57   C     C_3   0.033180 0.999238 0.481160 -0.491168
C58   C     C_3   0.531274 0.497564 0.478347 -0.483393
C59   C     C_3   0.936523 0.000686 0.367194 -0.007285
C60   C     C_3   0.434119 0.501070 0.364971 -0.011969
C61   C     C_3   0.916053 0.000236 0.526560 -0.087024
C62   C     C_3   0.416946 0.500470 0.526783 -0.090054
C63   C     C_3   0.020022 0.990081 0.570621 -0.284031
C64   C     C_3   0.519505 0.488347 0.568632 -0.278388
C65   C     C_3   0.830689 0.279333 0.925900 -0.451266
C66   C     C_3   0.756133 0.785428 0.998830 -0.441425
C67   C     C_3   0.331315 0.779874 0.926702 -0.449600
C68   C     C_3   0.256509 0.285359 0.999538 -0.432692
H45   H     H_    0.903304 0.291309 0.955444 0.216115
H46   H     H_    0.713193 0.815776 0.931602 0.200766
H47   H     H_    0.403934 0.791177 0.955332 0.217493
H48   H     H_    0.213545 0.315922 0.932769 0.202410
H49   H     H_    0.795123 0.263785 0.840952 0.205626
H50   H     H_    0.784051 0.807481 0.077020 0.227623
H51   H     H_    0.294172 0.764874 0.841178 0.206840
H52   H     H_    0.284866 0.307144 0.078095 0.228971
C69   C     C_3   0.281845 0.831378 0.932607 0.167537
C70   C     C_3   0.192753 0.237341 0.983278 0.163491
C71   C     C_3   0.778994 0.330338 0.928809 0.182788
C72   C     C_3   0.692499 0.737381 0.982784 0.167582
H53   H     H_    0.336779 0.863815 0.979113 0.120849
H54   H     H_    0.129498 0.238926 0.896238 0.112379
H55   H     H_    0.831846 0.364177 0.971174 0.118910
H56   H     H_    0.629356 0.738786 0.895661 0.111983
H57   H     H_    0.458111 0.769118 0.151537 0.202658
H58   H     H_    0.251095 0.250888 0.820580 0.172966
H59   H     H_    0.958365 0.269934 0.149914 0.202996
H60   H     H_    0.752047 0.750523 0.820848 0.172671
H61   H     H_    0.377275 0.841457 0.152548 0.174406
H62   H     H_    0.179414 0.175240 0.821841 0.182917
H63   H     H_    0.877578 0.342566 0.151213 0.177710
H64   H     H_    0.679982 0.675069 0.822182 0.183889
C73   C     C_3   0.385030 0.755909 0.118118 -0.385378
C74   C     C_3   0.301841 0.227519 0.896843 -0.406816
C75   C     C_3   0.885606 0.256654 0.117782 -0.383880
C76   C     C_3   0.802501 0.727309 0.897446 -0.403940
C77   C     C_3   0.733659 0.214980 0.956436 -0.413164
C78   C     C_3   0.905905 0.727734 0.102612 -0.450902
C79   C     C_3   0.234077 0.714639 0.956005 -0.442647
C80   C     C_3   0.406091 0.227443 0.101988 -0.458225
C81   C     C_3   0.834800 0.233295 0.999955 0.238783
C82   C     C_3   0.839878 0.764176 0.999346 0.257192
C83   C     C_3   0.335119 0.733273 0.999953 0.246308
C84   C     C_3   0.339844 0.264142 0.999206 0.261362
H65   H     H_    0.736840 0.179174 0.004267 0.207969
H66   H     H_    0.960564 0.708388 0.097589 0.184781
H67   H     H_    0.236795 0.681118 0.008136 0.206499
H68   H     H_    0.460334 0.208068 0.096191 0.187049
H69   H     H_    0.695889 0.199637 0.870770 0.155673
H70   H     H_    0.943489 0.752018 0.179523 0.154829
H71   H     H_    0.197401 0.696671 0.872392 0.155097
H72   H     H_    0.444245 0.251534 0.179144 0.154658
C85   C     C_3   0.241964 0.816607 0.000191 0.134937
C86   C     C_3   0.244680 0.181311 0.999987 0.139414
C87   C     C_3   0.742114 0.316901 0.999905 0.119234
C88   C     C_3   0.744681 0.681377 0.000126 0.138103
C89   C     C_3   0.330653 0.804502 0.118692 -0.439501
C90   C     C_3   0.250721 0.176732 0.900590 -0.411355
C91   C     C_3   0.831285 0.305470 0.118059 -0.439585
C92   C     C_3   0.751175 0.676606 0.901096 -0.411030
C93   C     C_3   0.177377 0.763902 0.949648 0.056556
C94   C     C_3   0.346618 0.183919 0.110595 0.028440
C95   C     C_3   0.678469 0.263918 0.956350 0.064486
C96   C     C_3   0.846405 0.684166 0.111011 0.025316
H73   H     H_    0.619849 0.271152 0.868957 0.133491
H74   H     H_    0.838243 0.700278 0.173713 0.148856
H75   H     H_    0.125421 0.772435 0.860955 0.137900
H76   H     H_    0.338842 0.199997 0.173626 0.148555
H77   H     H_    0.389209 0.723527 0.173296 0.164587
H78   H     H_    0.360645 0.214133 0.893349 0.175203
H79   H     H_    0.890946 0.224669 0.174216 0.164382
H80   H     H_    0.861661 0.713825 0.894702 0.174411
H81   H     H_    0.313651 0.794912 0.176914 0.189875
H82   H     H_    0.285468 0.138687 0.901757 0.200989
H83   H     H_    0.812895 0.295581 0.175244 0.192146
H84   H     H_    0.785966 0.638504 0.902602 0.200658
C97   C     C_3   0.416058 0.952876 0.545976 -0.502981
C98   C     C_3   0.462349 0.992438 0.427339 -0.485564
C99   C     C_3   0.916060 0.452893 0.546009 -0.502888
C100  C     C_3   0.962377 0.492441 0.427388 -0.484203
H85   H     H_    0.370617 0.959025 0.574172 0.215243
H86   H     H_    0.447773 0.025311 0.367548 0.211117
H87   H     H_    0.870633 0.459058 0.574221 0.215224
H88   H     H_    0.947785 0.525294 0.367557 0.211290
H89   H     H_    0.396497 0.912267 0.504091 0.150048
H90   H     H_    0.445748 0.952496 0.383068 0.150800
H91   H     H_    0.896476 0.412283 0.504129 0.150322
H92   H     H_    0.945804 0.452485 0.383167 0.151107
C101  C     C_3   0.521694 0.951068 0.643204 0.226442
C102  C     C_3   0.565954 0.992704 0.525174 0.227006
C103  C     C_3   0.021699 0.451073 0.643224 0.225722
C104  C     C_3   0.065986 0.492739 0.525239 0.226695
H93   H     H_    0.549818 0.912015 0.634355 0.048366
H94   H     H_    0.594637 0.951253 0.527952 0.075932
H95   H     H_    0.049812 0.412028 0.634332 0.048194
H96   H     H_    0.094716 0.451304 0.528021 0.076691
H97   H     H_    0.376533 0.062490 0.555132 0.176903
H98   H     H_    0.414821 0.090782 0.476872 0.181793
H99   H     H_    0.876514 0.562520 0.555103 0.176844
H100  H     H_    0.914854 0.590787 0.476878 0.181655
H101  H     H_    0.531026 0.061352 0.705804 0.209173
H102  H     H_    0.561115 0.092071 0.624428 0.191353
H103  H     H_    0.030983 0.561346 0.705834 0.209249
H104  H     H_    0.061135 0.592084 0.624529 0.190630
C105  C     C_3   0.423705 0.055579 0.529492 -0.376581
C106  C     C_3   0.923711 0.555593 0.529503 -0.377133
C107  C     C_3   0.398841 0.000221 0.466401 0.257927
C108  C     C_3   0.898849 0.500231 0.466426 0.257827
C109  C     C_3   0.574699 0.000565 0.634279 -0.004532
C110  C     C_3   0.074708 0.500579 0.634335 -0.004692
C111  C     C_3   0.526497 0.055364 0.629965 -0.322889
C112  C     C_3   0.026494 0.555373 0.630016 -0.323495
N33   N     N_R   0.789001 0.059060 0.255271 0.260504
O1    O     O_R   0.782097 0.081741 0.172515 -0.394586
O2    O     O_R   0.712318 0.043936 0.243658 -0.360507
N34   N     N_R   0.794269 0.935628 0.246097 0.257213
O3    O     O_R   0.779190 0.959137 0.159471 -0.317152
O4    O     O_R   0.741930 0.893684 0.232467 -0.293548
N35   N     N_R   0.287401 0.559676 0.256212 0.250766
O5    O     O_R   0.279659 0.568433 0.166051 -0.376743
O6    O     O_R   0.211155 0.559050 0.252065 -0.357235
N36   N     N_R   0.285665 0.443163 0.239007 0.277188
O7    O     O_R   0.292935 0.432946 0.159604 -0.361496
O8    O     O_R   0.203130 0.437707 0.219256 -0.287315
N37   N     N_R   0.931433 0.106413 0.526117 0.226001
O9    O     O_R   0.021559 0.111506 0.574525 -0.436367
O10   O     O_R   0.884208 0.149726 0.518224 -0.392771
N38   N     N_R   0.852182 0.900162 0.482697 0.243260
O11   O     O_R   0.923779 0.867101 0.523453 -0.389134
O12   O     O_R   0.776913 0.882374 0.471582 -0.351921
N39   N     N_R   0.439238 0.606220 0.530207 0.226296
O13   O     O_R   0.529148 0.609253 0.575933 -0.434210
O14   O     O_R   0.395726 0.650756 0.525290 -0.395556
N40   N     N_R   0.349364 0.401365 0.480252 0.238749
O15   O     O_R   0.419671 0.367655 0.517632 -0.390907
O16   O     O_R   0.274688 0.384017 0.470979 -0.355181
N41   N     N_R   0.705722 0.349480 0.817311 0.232013
O17   O     O_R   0.707335 0.400198 0.790166 -0.401460
O18   O     O_R   0.643985 0.315516 0.742065 -0.404290
N42   N     N_R   0.658494 0.744140 0.051253 0.252367
O19   O     O_R   0.568396 0.744688 0.005173 -0.401477
O20   O     O_R   0.716161 0.752991 0.156170 -0.382396
N43   N     N_R   0.211506 0.853817 0.822813 0.232162
O21   O     O_R   0.215484 0.905623 0.803217 -0.399560
O22   O     O_R   0.150531 0.822043 0.741826 -0.402865
N44   N     N_R   0.159023 0.243960 0.052051 0.251355
O23   O     O_R   0.068968 0.244672 0.006214 -0.401463
O24   O     O_R   0.216919 0.252537 0.157041 -0.394811
N45   N     N_2   0.120178 0.750979 0.989064 -0.110069
H105  H     H_    0.061551 0.727476 0.934364 0.171019
C113  C     C_3   0.162558 0.736295 0.102394 -0.796028
H106  H     H_    0.112748 0.710464 0.107382 0.238786
H107  H     H_    0.175983 0.773842 0.151189 0.230631
H108  H     H_    0.228385 0.712512 0.139142 0.257468
N46   N     N_2   0.395761 0.131414 0.155199 -0.124494
H109  H     H_    0.455457 0.134752 0.234612 0.209228
C114  C     C_3   0.407166 0.093764 0.089550 -0.765686
H110  H     H_    0.456822 0.060529 0.142698 0.265519
H111  H     H_    0.436643 0.115156 0.050720 0.247070
H112  H     H_    0.339106 0.073459 0.027696 0.240151
N47   N     N_2   0.633925 0.253960 0.012600 -0.116150
H113  H     H_    0.562202 0.260466 0.965760 0.162058
C115  C     C_3   0.667377 0.213364 0.098604 -0.797423
H114  H     H_    0.641149 0.224078 0.147838 0.235459
H115  H     H_    0.745185 0.212234 0.154478 0.257467
H116  H     H_    0.639515 0.171993 0.062058 0.272277
N48   N     N_2   0.895740 0.631746 0.156058 -0.125212
H117  H     H_    0.955223 0.635203 0.235590 0.210018
C116  C     C_3   0.907686 0.594058 0.090908 -0.757977
H118  H     H_    0.957543 0.560976 0.144418 0.267869
H119  H     H_    0.937182 0.615471 0.052121 0.246965
H120  H     H_    0.839833 0.573556 0.029059 0.237793
N49   N     N_R   0.535509 0.949037 0.749229 0.263856
O25   O     O_R   0.492693 0.983279 0.772544 -0.365364
O26   O     O_R   0.585876 0.909763 0.818171 -0.368917
N50   N     N_R   0.619361 0.033675 0.509750 0.250949
O27   O     O_R   0.592879 0.084929 0.487552 -0.419607
O28   O     O_R   0.689915 0.017737 0.509384 -0.406594
N51   N     N_R   0.035528 0.449011 0.749255 0.264091
O29   O     O_R   0.992745 0.483249 0.772625 -0.364495
O30   O     O_R   0.085888 0.409722 0.818156 -0.365768
N52   N     N_R   0.119366 0.533745 0.509840 0.251597
O31   O     O_R   0.092769 0.584977 0.487511 -0.419511
O32   O     O_R   0.190098 0.517872 0.509768 -0.403987
N53   N     N_2   0.022778 0.097437 0.319701 -0.123508
H121  H     H_    0.974677 0.128936 0.282598 0.173517
C117  C     C_3   0.119715 0.113208 0.370851 -0.897254
H122  H     H_    0.136863 0.149919 0.423326 0.271541
H123  H     H_    0.131146 0.123627 0.307811 0.243767
H124  H     H_    0.167531 0.079139 0.423235 0.249740
N54   N     N_2   0.012726 0.902253 0.313303 -0.126402
H125  H     H_    0.960761 0.872767 0.272864 0.184082
C118  C     C_3   0.108650 0.883501 0.367398 -0.898183
H126  H     H_    0.118936 0.844500 0.411770 0.275838
H127  H     H_    0.158843 0.914741 0.427573 0.255002
H128  H     H_    0.124483 0.876208 0.307174 0.234298
N55   N     N_2   0.521613 0.597414 0.318601 -0.122176
H129  H     H_    0.473927 0.629095 0.281195 0.168290
C119  C     C_3   0.618874 0.612856 0.370916 -0.887439
H130  H     H_    0.636004 0.649420 0.423727 0.271389
H131  H     H_    0.631116 0.623382 0.308588 0.241922
H132  H     H_    0.666145 0.578574 0.423142 0.248193
N56   N     N_2   0.512001 0.402545 0.313272 -0.125432
H133  H     H_    0.460351 0.372891 0.272894 0.192261
C120  C     C_3   0.607947 0.383792 0.367252 -0.909525
H134  H     H_    0.618463 0.344966 0.412199 0.277990
H135  H     H_    0.658255 0.415162 0.426888 0.255647
H136  H     H_    0.623573 0.376204 0.306929 0.236147

loop_
_geom_bond_atom_site_label_1
_geom_bond_atom_site_label_2
_geom_bond_distance
_ccdc_geom_bond_type
N23   Ni7   1.891034 S    
C27   H15   1.079601 S    
C86   C94   1.575940 S    
C52   C60   1.578551 S    
C35   N27   1.322330 A    
C118  H126  1.109949 S    
C114  H110  1.110988 S    
N4    N7    1.396747 A    
C24   C60   1.491047 S    
H58   C74   1.111580 S    
C54   N38   1.469859 S    
N42   O19   1.301058 A    
C77   C95   1.534394 S    
N4    Ni4   1.882700 S    
C29   H17   1.073465 S    
C50   N34   1.474696 S    
H102  C111  1.106271 S    
C93   H75   1.109802 S    
C106  C108  1.553701 S    
C97   H85   1.112236 S    
H61   C89   1.113659 S    
N21   N22   1.387800 A    
C96   N48   1.463673 S    
H57   C73   1.113527 S    
C65   H45   1.112489 S    
C110  C112  1.559008 S    
N16   Ni3   1.891035 S    
H39   C58   1.110966 S    
C41   C107  1.463918 S    
C68   H48   1.114288 S    
N38   O11   1.303195 A    
C67   C69   1.556266 S    
N43   O22   1.302038 A    
N52   O31   1.301588 A    
C78   H70   1.108934 S    
C67   H47   1.112259 S    
C4    N4    1.321700 A    
C11   C22   1.390103 A    
C36   H24   1.079749 S    
C74   C84   1.552617 S    
C88   C96   1.575847 S    
H99   C106  1.113043 S    
C33   C45   1.387430 A    
C100  H88   1.114234 S    
C6    C17   1.375681 A    
N2    N5    1.396747 A    
C9    H9    1.079059 S    
C11   H11   1.079062 S    
N51   O29   1.301460 A    
C73   H77   1.113649 S    
C72   H56   1.116426 S    
H97   C105  1.113042 S    
N54   C118  1.448318 S    
C11   N11   1.326226 A    
C7    H7    1.081141 S    
N23   N24   1.387800 A    
C34   H22   1.079760 S    
C32   H20   1.071710 S    
N7    Ni7   1.890566 S    
C5    N5    1.328013 A    
C105  C111  1.530209 S    
C51   H31   1.090320 S    
N37   O10   1.301973 A    
N15   N16   1.387800 A    
C58   C60   1.554383 S    
C14   N54   1.418228 S    
C118  H128  1.108907 S    
C114  H112  1.108756 S    
C25   C41   1.375963 A    
N35   O6    1.301834 A    
C98   C102  1.527635 S    
H98   C105  1.111585 S    
N9    Ni6   1.882669 S    
C103  C110  1.569127 S    
C55   N39   1.477198 S    
C71   N41   1.469397 S    
C23   C59   1.487656 S    
C70   C86   1.574734 S    
C76   C82   1.552574 S    
C36   N28   1.324386 A    
N6    Ni6   1.885130 S    
H38   C57   1.110731 S    
C30   H18   1.070512 S    
C78   C96   1.539062 S    
C55   H35   1.110516 S    
N28   N31   1.396747 A    
C3    N3    1.327382 A    
C57   C63   1.511539 S    
N54   H125  1.029379 S    
C94   H76   1.108131 S    
C31   C44   1.380755 A    
C37   N29   1.325820 A    
C78   H66   1.110937 S    
C115  H115  1.106628 S    
C69   H53   1.115278 S    
N50   O28   1.301162 A    
C99   C108  1.555780 S    
C120  H134  1.109966 S    
C35   C47   1.388284 A    
C102  N50   1.472138 S    
C113  H107  1.106752 S    
H101  C111  1.108461 S    
C102  H94   1.115922 S    
C99   H87   1.112236 S    
C116  H119  1.109456 S    
N56   C120  1.448874 S    
C30   N22   1.318721 A    
C40   H28   1.076980 S    
C49   N33   1.471818 S    
N13   Ni2   1.885758 S    
C72   N42   1.473776 S    
N33   O1    1.301416 A    
C32   C44   1.382418 A    
N26   N29   1.396747 A    
N15   Ni4   1.885758 S    
C101  H93   1.113720 S    
C25   N17   1.325907 A    
N47   C115  1.449456 S    
C27   N19   1.325954 A    
C86   C90   1.567174 S    
C95   N47   1.470641 S    
H103  C112  1.108456 S    
C71   C87   1.575943 S    
N53   C117  1.445951 S    
H59   C75   1.113458 S    
C7    C20   1.372295 A    
C8    C19   1.375568 A    
C56   N40   1.469426 S    
C94   N46   1.463628 S    
C54   C61   1.586478 S    
N55   C119  1.446125 S    
C106  C112  1.530283 S    
H43   C64   1.112666 S    
C52   N36   1.479010 S    
C36   C48   1.387802 A    
C50   C59   1.579099 S    
C14   C23   1.403556 A    
C42   C108  1.464054 S    
C47   C87   1.477894 S    
N51   O30   1.301159 A    
C67   H51   1.110963 S    
N17   Ni1   1.877939 S    
N45   H105  1.032343 S    
C53   H33   1.111977 S    
C117  H123  1.108706 S    
N21   Ni5   1.891034 S    
C88   C92   1.567015 S    
C8    H8    1.080120 S    
N36   O8    1.302060 A    
C75   C91   1.524514 S    
C10   H10   1.076344 S    
C120  H136  1.108883 S    
N48   C116  1.446376 S    
C79   C93   1.524392 S    
C73   C89   1.522591 S    
C31   N23   1.320576 A    
N25   Ni6   1.882701 S    
N14   Ni1   1.891035 S    
N27   N32   1.396747 A    
N20   Ni4   1.882668 S    
C97   C101  1.548549 S    
N34   O3    1.301082 A    
C66   C82   1.554464 S    
C32   N24   1.319912 A    
C66   C72   1.529103 S    
C5    H5    1.081037 S    
C115  H116  1.110411 S    
C6    N6    1.328247 A    
C119  H131  1.108717 S    
C53   C61   1.587451 S    
C1    C17   1.373405 A    
N2    Ni2   1.882700 S    
C3    C19   1.373595 A    
C13   N13   1.322670 A    
N17   N18   1.387800 A    
C117  H124  1.111491 S    
C68   C70   1.529041 S    
C100  C108  1.547727 S    
C39   H27   1.078611 S    
N19   N20   1.387800 A    
C16   N16   1.328487 A    
C98   H90   1.114625 S    
N38   O12   1.301567 A    
C46   C86   1.471940 S    
C75   H79   1.112901 S    
C95   H73   1.111215 S    
N40   O15   1.302938 A    
N52   O32   1.301184 A    
C104  C110  1.571789 S    
C49   C53   1.555926 S    
C9    N9    1.326201 A    
N18   Ni2   1.882668 S    
C51   C55   1.559793 S    
C65   C81   1.548899 S    
N13   N14   1.387800 A    
H64   C92   1.110489 S    
C85   C93   1.574906 S    
N11   N12   1.387800 A    
C68   C84   1.554456 S    
N35   O5    1.301224 A    
C67   C83   1.552449 S    
C92   H84   1.102510 S    
C1    H1    1.071442 S    
C3    H3    1.071302 S    
C57   C59   1.552578 S    
C4    C20   1.368832 A    
C54   H34   1.113284 S    
H62   C90   1.110426 S    
C80   C94   1.539486 S    
N44   O23   1.301101 A    
C78   C82   1.559615 S    
N49   O26   1.301155 A    
C13   N53   1.419934 S    
H40   C58   1.108913 S    
C118  H127  1.110814 S    
C70   H54   1.116427 S    
C77   H65   1.108070 S    
C79   H71   1.114437 S    
C80   H68   1.111407 S    
N8    Ni8   1.885130 S    
C30   C43   1.383125 A    
C77   H69   1.114466 S    
N29   Ni2   1.885127 S    
H60   C76   1.111550 S    
N31   Ni4   1.885127 S    
N24   Ni8   1.885756 S    
N37   O9    1.301070 A    
C87   C91   1.558384 S    
C51   C60   1.576890 S    
C34   C46   1.387760 A    
C61   C63   1.552291 S    
C99   H91   1.110627 S    
C38   H26   1.077078 S    
C62   C64   1.546854 S    
C114  H111  1.109465 S    
C104  N52   1.472170 S    
C74   H78   1.112972 S    
C115  H114  1.110217 S    
C76   H80   1.112992 S    
C1    N1    1.327220 A    
C20   C83   1.464126 S    
N19   Ni3   1.877939 S    
C87   C95   1.569481 S    
C10   C21   1.385786 A    
N56   H133  1.029190 S    
N28   Ni7   1.877810 S    
C25   H13   1.079592 S    
C26   N18   1.322999 A    
C80   H72   1.108855 S    
N32   Ni3   1.890566 S    
C2    C18   1.368900 A    
C28   H16   1.078882 S    
C117  H122  1.109909 S    
C22   C110  1.470711 S    
C101  N49   1.470063 S    
N43   O21   1.301409 A    
C12   H12   1.076453 S    
C103  N51   1.470062 S    
C16   N56   1.419449 S    
N41   O18   1.302012 A    
C113  H106  1.111096 S    
C37   C46   1.390529 A    
C66   H50   1.113279 S    
N39   O14   1.302003 A    
N10   Ni5   1.877940 S    
C103  H95   1.113722 S    
H41   C63   1.112544 S    
C70   N44   1.473773 S    
C52   C56   1.566199 S    
C75   C81   1.553865 S    
N30   Ni1   1.890566 S    
H37   C57   1.111284 S    
C73   C83   1.553326 S    
C69   C85   1.577439 S    
C100  H92   1.114618 S    
C100  C104  1.527735 S    
H63   C91   1.113470 S    
C35   H23   1.076920 S    
C90   H82   1.102514 S    
C116  H118  1.111007 S    
C48   C88   1.471673 S    
N42   O20   1.301537 A    
C44   C62   1.482272 S    
C31   H19   1.073878 S    
C18   C81   1.464612 S    
C17   C82   1.470305 S    
C40   C47   1.391539 A    
C9    C21   1.390038 A    
C55   C62   1.588328 S    
C12   N12   1.321050 A    
N47   H113  1.032094 S    
C97   H89   1.110629 S    
C15   N55   1.419954 S    
C65   H49   1.111205 S    
N5    Ni5   1.890566 S    
C72   C88   1.574642 S    
C119  H130  1.109906 S    
C68   H52   1.113227 S    
N53   H121  1.028603 S    
C6    H6    1.080123 S    
C4    H4    1.074936 S    
C56   C62   1.583909 S    
H44   C64   1.111621 S    
C76   C92   1.541514 S    
N55   H129  1.028566 S    
C39   C48   1.390311 A    
H100  C106  1.111598 S    
C49   C59   1.576136 S    
C14   N14   1.327737 A    
C79   C83   1.550065 S    
C43   C61   1.484117 S    
C50   H30   1.102074 S    
C5    C18   1.372725 A    
C13   C23   1.398979 A    
N1    N6    1.396747 A    
C98   H86   1.114239 S    
N3    N8    1.396747 A    
C29   N21   1.320940 A    
C38   C45   1.389255 A    
C49   H29   1.092377 S    
C29   C43   1.382608 A    
N25   N30   1.396747 A    
C12   C22   1.385828 A    
C10   N10   1.321019 A    
C51   N35   1.475100 S    
N27   Ni8   1.882701 S    
C97   C107  1.555794 S    
C85   C89   1.561512 S    
N11   Ni8   1.882669 S    
C33   H21   1.077851 S    
C101  C109  1.569134 S    
C98   C107  1.547679 S    
C34   N26   1.324293 A    
C7    N7    1.327976 A    
C15   C24   1.400806 A    
C8    N8    1.328176 A    
N1    Ni1   1.877811 S    
N12   Ni7   1.877940 S    
C37   H25   1.078632 S    
C2    H2    1.074728 S    
C56   H36   1.111983 S    
C28   C42   1.376064 A    
C113  H108  1.107390 S    
C80   C84   1.559708 S    
C105  C107  1.553686 S    
C58   C64   1.507602 S    
N34   O4    1.301280 A    
C109  C111  1.559025 S    
N46   H109  1.032202 S    
C77   C81   1.550984 S    
C116  H120  1.108756 S    
C15   N15   1.322441 A    
N48   H117  1.032205 S    
N41   O17   1.301261 A    
C16   C24   1.407007 A    
C104  H96   1.115917 S    
C26   C41   1.376047 A    
C53   N37   1.476237 S    
N33   O2    1.301937 A    
C71   H55   1.115180 S    
N22   Ni6   1.885756 S    
C21   C109  1.470618 S    
H42   C63   1.112116 S    
C28   N20   1.323047 A    
N9    N10   1.387800 A    
N46   C114  1.446392 S    
C102  C109  1.571772 S    
C99   C103  1.548539 S    
C65   C71   1.552790 S    
C96   H74   1.108083 S    
N39   O13   1.300784 A    
C74   C90   1.541534 S    
C27   C42   1.376028 A    
N40   O16   1.301507 A    
N26   Ni5   1.877810 S    
C93   N45   1.467734 S    
C2    N2    1.321986 A    
C40   N32   1.322054 A    
C26   H14   1.078853 S    
C79   H67   1.111054 S    
H104  C112  1.106287 S    
C91   H83   1.108785 S    
C39   N31   1.325521 A    
N50   O27   1.301586 A    
C89   H81   1.104064 S    
N45   C113  1.451688 S    
N44   O24   1.301544 A    
N49   O25   1.301462 A    
N36   O7    1.300512 A    
C33   N25   1.321903 A    
C69   N43   1.470773 S    
C120  H135  1.110780 S    
C66   H46   1.114264 S    
C119  H132  1.111489 S    
C45   C85   1.473956 S    
N3    Ni3   1.877811 S    
C50   C54   1.556491 S    
C19   C84   1.470337 S    
C38   N30   1.321719 A    
C52   H32   1.101873 S    
