data_str_m4_o2_o17_f0_acs.sym.117
_audit_creation_date              2012-12-11T15:22:19-0500
_audit_creation_method            fapswitch 2.2
_symmetry_space_group_name_H-M    P1
_symmetry_Int_Tables_number       1
_space_group_crystal_system       triclinic
_cell_length_a                    22.538849
_cell_length_b                    12.934245
_cell_length_c                    26.876138
_cell_angle_alpha                 90.182835
_cell_angle_beta                  90.235093
_cell_angle_gamma                 89.736579
_cell_volume                      7834.82406104

loop_
_atom_site_label
_atom_site_type_symbol
_atom_type_description
_atom_site_fract_x
_atom_site_fract_y
_atom_site_fract_z
_atom_type_partial_charge
C1    C     C_R   0.719377 0.341942 0.177053 0.599909
C2    C     C_R   0.280786 0.341663 0.823058 0.604734
C3    C     C_R   0.219377 0.841942 0.177053 0.599898
C4    C     C_R   0.780787 0.841663 0.823058 0.604722
C5    C     C_R   0.479436 0.164520 0.870457 -0.023976
C6    C     C_R   0.519211 0.164977 0.130234 -0.024011
C7    C     C_R   0.979437 0.664520 0.870457 -0.023978
C8    C     C_R   0.019211 0.664977 0.130234 -0.024012
C9    C     C_R   0.506502 0.259511 0.106114 0.230487
C10   C     C_R   0.491328 0.259055 0.894942 0.228636
C11   C     C_R   0.006502 0.759511 0.106114 0.230489
C12   C     C_R   0.991328 0.759055 0.894942 0.228638
C13   C     C_R   0.501388 0.259828 0.053401 0.015925
C14   C     C_R   0.495241 0.259542 0.947692 0.007400
C15   C     C_R   0.001388 0.759828 0.053401 0.015924
C16   C     C_R   0.995242 0.759542 0.947692 0.007400
C17   C     C_R   0.500948 0.164761 0.026635 -0.023676
C18   C     C_R   0.496332 0.164536 0.974190 -0.029520
C19   C     C_R   0.000949 0.664762 0.026635 -0.023676
C20   C     C_R   0.996332 0.664536 0.974190 -0.029519
C21   C     C_R   0.499296 0.352707 0.026483 -0.106549
C22   C     C_R   0.495998 0.352565 0.974846 -0.111424
C23   C     C_R   0.999296 0.852707 0.026482 -0.106549
C24   C     C_R   0.995999 0.852565 0.974846 -0.111424
C25   C     C_R   0.745837 0.950063 0.132244 0.014232
C26   C     C_R   0.254823 0.950497 0.867697 0.019650
C27   C     C_R   0.245837 0.450063 0.132244 0.014231
C28   C     C_R   0.754822 0.450495 0.867696 0.019651
C29   C     C_R   0.786987 0.997689 0.100644 -0.088110
C30   C     C_R   0.210547 0.993741 0.898078 -0.077239
C31   C     C_R   0.286987 0.497689 0.100644 -0.088111
C32   C     C_R   0.710544 0.493736 0.898077 -0.077234
C33   C     C_R   0.793105 0.964872 0.051871 -0.086693
C34   C     C_R   0.204857 0.962551 0.947025 -0.088970
C35   C     C_R   0.293105 0.464872 0.051871 -0.086693
C36   C     C_R   0.704854 0.462545 0.947024 -0.088968
C37   C     C_R   0.758055 0.884295 0.033584 0.014860
C38   C     C_R   0.243293 0.887702 0.966675 0.016490
C39   C     C_R   0.258055 0.384293 0.033584 0.014859
C40   C     C_R   0.743292 0.387699 0.966674 0.016489
C41   C     C_R   0.720029 0.831141 0.065687 -0.086067
C42   C     C_R   0.284892 0.838889 0.935710 -0.067234
C43   C     C_R   0.220030 0.331139 0.065688 -0.086063
C44   C     C_R   0.784892 0.338890 0.935710 -0.067240
C45   C     C_R   0.551678 0.157899 0.178387 0.562443
C46   C     C_R   0.448036 0.157745 0.821815 0.578738
C47   C     C_R   0.051678 0.657899 0.178387 0.562447
C48   C     C_R   0.948036 0.657745 0.821815 0.578740
C49   C     C_R   0.714764 0.862987 0.115359 -0.095642
C50   C     C_R   0.289809 0.869107 0.885951 -0.070646
C51   C     C_R   0.214765 0.362986 0.115359 -0.095639
C52   C     C_R   0.789810 0.369108 0.885951 -0.070649
C53   C     C_R   0.710320 0.879672 0.949905 -0.083000
C54   C     C_R   0.290766 0.878204 0.050580 -0.084701
C55   C     C_R   0.210321 0.379675 0.949905 -0.082998
C56   C     C_R   0.790765 0.378201 0.050580 -0.084702
C57   C     C_R   0.715548 0.878016 0.897801 0.252803
C58   C     C_R   0.285578 0.874879 0.102649 0.248257
C59   C     C_R   0.215549 0.378020 0.897801 0.252799
C60   C     C_R   0.785577 0.374877 0.102649 0.248257
C61   C     C_R   0.820474 0.836919 0.907502 -0.152428
C62   C     C_R   0.179740 0.843739 0.092611 -0.156009
C63   C     C_R   0.320474 0.336914 0.907502 -0.152430
C64   C     C_R   0.679739 0.343739 0.092611 -0.156010
C65   C     C_R   0.815022 0.839737 0.958728 -0.130540
C66   C     C_R   0.185268 0.847552 0.041469 -0.135915
C67   C     C_R   0.315021 0.339732 0.958728 -0.130540
C68   C     C_R   0.685267 0.347551 0.041469 -0.135913
C69   C     C_R   0.760201 0.861927 0.980236 -0.029962
C70   C     C_R   0.240489 0.866182 0.020096 -0.029209
C71   C     C_R   0.260202 0.361926 0.980236 -0.029963
C72   C     C_R   0.740488 0.366180 0.020096 -0.029208
C73   C     C_R   0.771430 0.857088 0.876485 0.021209
C74   C     C_R   0.229207 0.858482 0.123818 0.022027
C75   C     C_R   0.271430 0.357087 0.876485 0.021205
C76   C     C_R   0.729206 0.358481 0.123817 0.022023
C77   C     C_R   0.520722 0.170651 0.368621 0.028135
C78   C     C_R   0.432730 0.163969 0.620548 0.024726
C79   C     C_R   0.020702 0.670644 0.368611 0.028126
C80   C     C_R   0.932717 0.663971 0.620546 0.024786
C81   C     C_R   0.528694 0.259832 0.397935 -0.126942
C82   C     C_R   0.491117 0.182942 0.605628 -0.111037
C83   C     C_R   0.028563 0.759913 0.397884 -0.126911
C84   C     C_R   0.991015 0.683741 0.605627 -0.111063
C85   C     C_R   0.506689 0.264128 0.446339 -0.129098
C86   C     C_R   0.504470 0.190930 0.555112 -0.128306
C87   C     C_R   0.006548 0.764226 0.446284 -0.129094
C88   C     C_R   0.004351 0.691746 0.555109 -0.128306
C89   C     C_R   0.732178 0.000546 0.179891 0.533741
C90   C     C_R   0.267950 0.000653 0.820109 0.541618
C91   C     C_R   0.232179 0.500546 0.179891 0.533742
C92   C     C_R   0.767950 0.500652 0.820109 0.541601
C93   C     C_R   0.475291 0.180331 0.465861 0.030242
C94   C     C_R   0.459721 0.178730 0.519031 0.019508
C95   C     C_R   0.975258 0.680343 0.465850 0.030347
C96   C     C_R   0.959677 0.678784 0.519022 0.019596
C97   C     C_R   0.463805 0.093979 0.435623 -0.119278
C98   C     C_R   0.401133 0.161121 0.534116 -0.122443
C99   C     C_R   0.963877 0.593894 0.435646 -0.119281
C100  C     C_R   0.901169 0.660410 0.534110 -0.122417
C101  C     C_R   0.486912 0.088668 0.387468 -0.127110
C102  C     C_R   0.387630 0.155353 0.584719 -0.150825
C103  C     C_R   0.986986 0.588579 0.387494 -0.127116
C104  C     C_R   0.887675 0.654619 0.584713 -0.150754
C105  C     C_R   0.742424 0.949332 0.369420 0.033543
C106  C     C_R   0.260479 0.955750 0.628310 0.031086
C107  C     C_R   0.242429 0.449307 0.369413 0.033521
C108  C     C_R   0.760388 0.455454 0.628391 0.030971
C109  C     C_R   0.693184 0.921919 0.398036 -0.126091
C110  C     C_R   0.311429 0.931997 0.600747 -0.138470
C111  C     C_R   0.193192 0.421902 0.398034 -0.126031
C112  C     C_R   0.811289 0.431328 0.600842 -0.138543
C113  C     C_R   0.700316 0.901336 0.448003 -0.116977
C114  C     C_R   0.307858 0.923953 0.549690 -0.133358
C115  C     C_R   0.200333 0.401285 0.447996 -0.116791
C116  C     C_R   0.807686 0.423118 0.549791 -0.133274
C117  C     C_R   0.756925 0.904396 0.469594 0.072206
C118  C     C_R   0.252831 0.933207 0.525717 0.069746
C119  C     C_R   0.256947 0.404290 0.469577 0.072245
C120  C     C_R   0.752663 0.432550 0.525823 0.069699
C121  C     C_R   0.807002 0.920625 0.439959 -0.063711
C122  C     C_R   0.200868 0.944883 0.553773 -0.065316
C123  C     C_R   0.307020 0.420510 0.439936 -0.063711
C124  C     C_R   0.700725 0.444486 0.553886 -0.065276
C125  C     C_R   0.799703 0.944368 0.389910 -0.103793
C126  C     C_R   0.204774 0.957590 0.605023 -0.100866
C127  C     C_R   0.299714 0.444299 0.389891 -0.103836
C128  C     C_R   0.704671 0.457374 0.605122 -0.100861
C129  C     C_R   0.794911 0.965992 0.552028 0.264192
C130  C     C_R   0.213851 0.990257 0.442620 0.259075
C131  C     C_R   0.294948 0.465894 0.552002 0.264227
C132  C     C_R   0.713744 0.489840 0.442735 0.259064
C133  C     C_R   0.721266 0.347806 0.321584 0.566539
C134  C     C_R   0.279502 0.345478 0.677548 0.552339
C135  C     C_R   0.221272 0.847830 0.321573 0.566605
C136  C     C_R   0.779498 0.845487 0.677552 0.552378
C137  C     C_R   0.795035 0.955517 0.604035 -0.161342
C138  C     C_R   0.210245 0.971133 0.391125 -0.171030
C139  C     C_R   0.295067 0.455448 0.604012 -0.161388
C140  C     C_R   0.710193 0.470892 0.391221 -0.171060
C141  C     C_R   0.727508 0.809662 0.597606 0.230976
C142  C     C_R   0.281936 0.830543 0.398538 0.241499
C143  C     C_R   0.227520 0.309618 0.597599 0.230856
C144  C     C_R   0.781814 0.330190 0.398591 0.241470
C145  C     C_R   0.729518 0.816977 0.546391 -0.161650
C146  C     C_R   0.284382 0.847360 0.449251 -0.154833
C147  C     C_R   0.229535 0.316903 0.546382 -0.161780
C148  C     C_R   0.784173 0.346781 0.449322 -0.154858
C149  C     C_R   0.762059 0.894722 0.523454 -0.005965
C150  C     C_R   0.250315 0.924944 0.471581 -0.002871
C151  C     C_R   0.262089 0.394620 0.523437 -0.005990
C152  C     C_R   0.750132 0.424360 0.471681 -0.002941
C153  C     C_R   0.763896 0.874975 0.626730 -0.021947
C154  C     C_R   0.240677 0.887337 0.369865 -0.016457
C155  C     C_R   0.263913 0.374935 0.626718 -0.021952
C156  C     C_R   0.740626 0.387148 0.369919 -0.016520
C157  C     C_R   0.553588 0.159275 0.321508 0.546727
C158  C     C_R   0.417752 0.155255 0.673255 0.546256
C159  C     C_R   0.053586 0.659274 0.321507 0.546742
C160  C     C_R   0.917753 0.655258 0.673256 0.546354
C161  C     C_R   0.732059 0.000691 0.322236 0.552443
C162  C     C_R   0.268303 0.001003 0.677370 0.542895
C163  C     C_R   0.232060 0.500688 0.322235 0.552414
C164  C     C_R   0.768288 0.500954 0.677391 0.542899
C165  C     C_R   0.511317 0.072601 0.104107 -0.103185
C166  C     C_R   0.487117 0.071991 0.896465 -0.075317
C167  C     C_R   0.011317 0.572601 0.104107 -0.103185
C168  C     C_R   0.987118 0.571991 0.896465 -0.075319
C169  C     C_R   0.505992 0.070058 0.052292 -0.052458
C170  C     C_R   0.492689 0.069453 0.948264 -0.025490
C171  C     C_R   0.005992 0.570058 0.052291 -0.052457
C172  C     C_R   0.992690 0.569453 0.948264 -0.025488
C173  C     C_R   0.493773 0.974215 0.974522 0.262878
C174  C     C_R   0.507865 0.974979 0.025797 0.208873
C175  C     C_R   0.993775 0.474215 0.974522 0.262877
C176  C     C_R   0.007867 0.474980 0.025797 0.208874
Cr1   Cr    Cr6+3 0.756570 0.170940 0.251190 1.093438
Cr2   Cr    Cr6+3 0.243430 0.170940 0.748810 1.089277
Cr3   Cr    Cr6+3 0.256570 0.670940 0.251190 1.093451
Cr4   Cr    Cr6+3 0.743430 0.670940 0.748810 1.089254
Cr5   Cr    Cr6+3 0.623740 0.299110 0.249580 1.108628
Cr6   Cr    Cr6+3 0.376260 0.299110 0.750420 1.092211
Cr7   Cr    Cr6+3 0.123740 0.799110 0.249580 1.108602
Cr8   Cr    Cr6+3 0.876260 0.799110 0.750420 1.092163
Cr9   Cr    Cr6+3 0.625990 0.036240 0.250480 1.051009
Cr10  Cr    Cr6+3 0.374010 0.036240 0.749520 1.027370
Cr11  Cr    Cr6+3 0.125990 0.536240 0.250480 1.051012
Cr12  Cr    Cr6+3 0.874010 0.536240 0.749520 1.027391
H1    H     H_    0.488071 0.001332 0.875229 0.232726
H2    H     H_    0.511279 0.001655 0.125035 0.246927
H3    H     H_    0.988071 0.501332 0.875229 0.232728
H4    H     H_    0.011279 0.501655 0.125035 0.246928
H5    H     H_    0.863329 0.817134 0.892002 0.172466
H6    H     H_    0.136436 0.826944 0.107833 0.166261
H7    H     H_    0.363329 0.317127 0.892002 0.172460
H8    H     H_    0.636436 0.326944 0.107833 0.166259
H9    H     H_    0.693490 0.767415 0.052013 0.173907
H10   H     H_    0.313953 0.779161 0.950222 0.165455
H11   H     H_    0.193491 0.267412 0.052013 0.173907
H12   H     H_    0.813955 0.279163 0.950223 0.165455
H13   H     H_    0.684332 0.823298 0.139735 0.184332
H14   H     H_    0.321957 0.831611 0.862131 0.150871
H15   H     H_    0.184333 0.323296 0.139736 0.184330
H16   H     H_    0.821959 0.331614 0.862131 0.150872
H17   H     H_    0.554858 0.323983 0.384554 0.125508
H18   H     H_    0.526200 0.190952 0.633019 0.131907
H19   H     H_    0.054646 0.824137 0.384473 0.125511
H20   H     H_    0.026050 0.692340 0.633020 0.131928
H21   H     H_    0.366004 0.152376 0.506807 0.129474
H22   H     H_    0.439755 0.028448 0.450218 0.098571
H23   H     H_    0.866086 0.651096 0.506803 0.129410
H24   H     H_    0.939909 0.528295 0.450266 0.098516
H25   H     H_    0.342060 0.143767 0.595965 0.123412
H26   H     H_    0.480080 0.019158 0.365639 0.118590
H27   H     H_    0.842153 0.642506 0.595954 0.123433
H28   H     H_    0.980235 0.519000 0.365697 0.118643
H29   H     H_    0.515745 0.331509 0.469150 0.098859
H30   H     H_    0.549978 0.204143 0.544070 0.113339
H31   H     H_    0.015513 0.831698 0.469059 0.098723
H32   H     H_    0.049802 0.705546 0.544075 0.113205
H33   H     H_    0.648502 0.925250 0.383078 0.134482
H34   H     H_    0.355050 0.929844 0.617810 0.137595
H35   H     H_    0.148506 0.425272 0.383085 0.134459
H36   H     H_    0.854913 0.429064 0.617895 0.137529
H37   H     H_    0.820408 0.008250 0.626965 0.129589
H38   H     H_    0.181859 0.018079 0.367706 0.126791
H39   H     H_    0.320446 0.508178 0.626939 0.129529
H40   H     H_    0.681859 0.517951 0.367810 0.126735
H41   H     H_    0.661115 0.889114 0.470363 0.094920
H42   H     H_    0.348553 0.914375 0.528813 0.095531
H43   H     H_    0.161135 0.389094 0.470364 0.094926
H44   H     H_    0.848366 0.413338 0.528915 0.095407
H45   H     H_    0.705103 0.761258 0.524361 0.167821
H46   H     H_    0.311257 0.795545 0.471563 0.141904
H47   H     H_    0.205110 0.261188 0.524358 0.167998
H48   H     H_    0.810989 0.294835 0.471613 0.142296
H49   H     H_    0.851182 0.919202 0.455941 0.128039
H50   H     H_    0.157667 0.946662 0.536031 0.127503
H51   H     H_    0.351204 0.419060 0.455911 0.128100
H52   H     H_    0.657519 0.446384 0.536155 0.127618
H53   H     H_    0.838229 0.963830 0.367953 0.126356
H54   H     H_    0.164926 0.973607 0.626073 0.124910
H55   H     H_    0.338237 0.463764 0.367931 0.126359
H56   H     H_    0.664851 0.473630 0.626169 0.125028
H57   H     H_    0.492390 0.426799 0.956769 0.212525
H58   H     H_    0.502128 0.427056 0.044704 0.215035
H59   H     H_    0.992391 0.926799 0.956768 0.212533
H60   H     H_    0.002128 0.927056 0.044704 0.215035
H61   H     H_    0.812140 0.064571 0.112577 0.167418
H62   H     H_    0.182359 0.056199 0.885074 0.185744
H63   H     H_    0.312139 0.564572 0.112576 0.167418
H64   H     H_    0.682356 0.556192 0.885072 0.185748
H65   H     H_    0.668221 0.899238 0.966925 0.178331
H66   H     H_    0.333356 0.894164 0.033771 0.184087
H67   H     H_    0.168222 0.399244 0.966925 0.178333
H68   H     H_    0.833355 0.394161 0.033770 0.184085
H69   H     H_    0.823005 0.006156 0.027568 0.147020
H70   H     H_    0.172344 0.000939 0.970343 0.150658
H71   H     H_    0.323005 0.506156 0.027567 0.147020
H72   H     H_    0.672340 0.500931 0.970341 0.150658
H73   H     H_    0.853944 0.826646 0.981734 0.153213
H74   H     H_    0.146086 0.837572 0.018445 0.146503
H75   H     H_    0.353944 0.326638 0.981734 0.153213
H76   H     H_    0.646085 0.337570 0.018445 0.146501
O1    O     O_R   0.769900 0.064540 0.196060 -0.507699
O2    O     O_R   0.230100 0.064540 0.803940 -0.501076
O3    O     O_R   0.269900 0.564540 0.196060 -0.507693
O4    O     O_R   0.730100 0.564540 0.803940 -0.501086
O5    O     O_R   0.574760 0.239320 0.300850 -0.491652
O6    O     O_R   0.425240 0.239320 0.699150 -0.481261
O7    O     O_R   0.074760 0.739320 0.300850 -0.491656
O8    O     O_R   0.925240 0.739320 0.699150 -0.481389
O9    O     O_R   0.566290 0.069580 0.305400 -0.520539
O10   O     O_R   0.433710 0.069580 0.694600 -0.510103
O11   O     O_R   0.066290 0.569580 0.305400 -0.520555
O12   O     O_R   0.933710 0.569580 0.694600 -0.509974
O13   O     O_R   0.680760 0.993330 0.302620 -0.513052
O14   O     O_R   0.319240 0.993330 0.697380 -0.532699
O15   O     O_R   0.180760 0.493330 0.302620 -0.513040
O16   O     O_R   0.819240 0.493330 0.697380 -0.532717
O17   O     O_3   0.668770 0.168760 0.250420 -0.282952
O18   O     O_3   0.331230 0.168760 0.749580 -0.301325
O19   O     O_3   0.168770 0.668760 0.250420 -0.282945
O20   O     O_3   0.831230 0.668760 0.749580 -0.301297
O21   O     O_R   0.750800 0.274080 0.199250 -0.462241
O22   O     O_R   0.249200 0.274080 0.800750 -0.459538
O23   O     O_R   0.250800 0.774080 0.199250 -0.462247
O24   O     O_R   0.749200 0.774080 0.800750 -0.459547
O25   O     O_R   0.669990 0.371670 0.194150 -0.487164
O26   O     O_R   0.330010 0.371670 0.805850 -0.487902
O27   O     O_R   0.169990 0.871670 0.194150 -0.487175
O28   O     O_R   0.830010 0.871670 0.805850 -0.487921
O29   O     O_R   0.574600 0.238480 0.197800 -0.440984
O30   O     O_R   0.425400 0.238480 0.802200 -0.433164
O31   O     O_R   0.074600 0.738480 0.197800 -0.440984
O32   O     O_R   0.925400 0.738480 0.802200 -0.433172
O33   O     O_R   0.566130 0.068680 0.194240 -0.506255
O34   O     O_R   0.433870 0.068680 0.805760 -0.511935
O35   O     O_R   0.066130 0.568680 0.194240 -0.506252
O36   O     O_R   0.933870 0.568680 0.805760 -0.511934
O37   O     O_R   0.680610 0.992490 0.199570 -0.490797
O38   O     O_R   0.319390 0.992490 0.800430 -0.496480
O39   O     O_R   0.180610 0.492490 0.199570 -0.490796
O40   O     O_R   0.819390 0.492490 0.800430 -0.496495
O41   O     O_R   0.770060 0.065440 0.307230 -0.487800
O42   O     O_R   0.229940 0.065440 0.692770 -0.484135
O43   O     O_R   0.270060 0.565440 0.307230 -0.487876
O44   O     O_R   0.729940 0.565440 0.692770 -0.484161
O45   O     O_R   0.750960 0.274920 0.302300 -0.441554
O46   O     O_R   0.249040 0.274920 0.697700 -0.449236
O47   O     O_R   0.250960 0.774920 0.302300 -0.441537
O48   O     O_R   0.749040 0.774920 0.697700 -0.449245
O49   O     O_R   0.670160 0.372580 0.305320 -0.531572
O50   O     O_R   0.329840 0.372580 0.694680 -0.533288
O51   O     O_R   0.170160 0.872580 0.305320 -0.531614
O52   O     O_R   0.829840 0.872580 0.694680 -0.533285
O53   O     O_3   0.822319 0.048592 0.528504 -0.547881
C177  C     C_3   0.881234 0.061413 0.545697 -0.014074
H77   H     H_    0.904324 0.985782 0.551339 0.125193
H78   H     H_    0.881512 0.106435 0.580990 0.135726
C178  C     C_3   0.916166 0.122251 0.507519 -0.375124
H79   H     H_    0.895294 0.199048 0.501465 0.151531
H80   H     H_    0.962055 0.133885 0.521443 0.085402
H81   H     H_    0.917782 0.079444 0.471670 0.146580
O54   O     O_3   0.185065 0.073288 0.465541 -0.559523
C179  C     C_3   0.127393 0.089740 0.446003 -0.017295
H82   H     H_    0.104184 0.015519 0.437828 0.115657
H83   H     H_    0.129906 0.137351 0.411712 0.140513
C180  C     C_3   0.090169 0.148849 0.483690 -0.381851
H84   H     H_    0.110472 0.224847 0.492009 0.142134
H85   H     H_    0.045193 0.162440 0.468016 0.088808
H86   H     H_    0.086352 0.103824 0.518630 0.146176
O55   O     O_3   0.322363 0.548466 0.528458 -0.547831
C181  C     C_3   0.381222 0.561519 0.545745 -0.014061
H87   H     H_    0.404346 0.485976 0.551560 0.125229
H88   H     H_    0.381364 0.606801 0.580962 0.135779
C182  C     C_3   0.416224 0.622139 0.507530 -0.375055
H89   H     H_    0.395284 0.698806 0.501262 0.151810
H90   H     H_    0.462048 0.634058 0.521549 0.085397
H91   H     H_    0.418021 0.579014 0.471775 0.146410
O56   O     O_3   0.684993 0.572872 0.465687 -0.559462
C183  C     C_3   0.627366 0.589546 0.446098 -0.017283
H92   H     H_    0.604100 0.515414 0.437850 0.115654
H93   H     H_    0.629977 0.637247 0.411841 0.140491
C184  C     C_3   0.590138 0.648659 0.483780 -0.381778
H94   H     H_    0.610491 0.724587 0.492161 0.142166
H95   H     H_    0.545194 0.662396 0.468071 0.088799
H96   H     H_    0.586235 0.603560 0.518691 0.146171
S1    S     S_3+6 0.472060 0.855940 0.944811 0.053173
O57   O     O_2   0.525433 0.807401 0.920675 -0.192798
O58   O     O_2   0.446405 0.781472 0.981639 -0.210433
O59   O     O_3   0.420011 0.877758 0.901218 -0.588631
H97   H     H_    0.428295 0.826810 0.874507 0.359723
S2    S     S_3+6 0.536507 0.860825 0.055185 0.066149
O60   O     O_2   0.487011 0.805995 0.081284 -0.143888
O61   O     O_2   0.564745 0.788381 0.018354 -0.216197
O62   O     O_3   0.588516 0.892301 0.097316 -0.549912
H98   H     H_    0.611523 0.948187 0.081399 0.317658
S3    S     S_3+6 0.972064 0.355939 0.944811 0.053180
O63   O     O_2   0.025438 0.307404 0.920674 -0.192792
O64   O     O_2   0.946410 0.281469 0.981639 -0.210427
O65   O     O_3   0.920014 0.377755 0.901218 -0.588632
H99   H     H_    0.928297 0.326802 0.874508 0.359726
S4    S     S_3+6 0.036510 0.360826 0.055185 0.066147
O66   O     O_2   0.987014 0.305994 0.081284 -0.143889
O67   O     O_2   0.064749 0.288383 0.018354 -0.216200
O68   O     O_3   0.088519 0.392305 0.097316 -0.549913
H100  H     H_    0.111525 0.448192 0.081399 0.317659
O69   O     O_3   0.694090 0.731503 0.618222 -0.521082
C185  C     C_3   0.635396 0.768295 0.623847 0.006249
H101  H     H_    0.616193 0.793421 0.587519 0.107556
H102  H     H_    0.634059 0.834221 0.650631 0.140238
C186  C     C_3   0.596739 0.682175 0.644044 -0.348337
H103  H     H_    0.614939 0.653855 0.679987 0.187830
H104  H     H_    0.550970 0.711614 0.650113 0.095783
H105  H     H_    0.594965 0.617254 0.616978 0.133018
O70   O     O_3   0.313366 0.747933 0.378945 -0.515040
C187  C     C_3   0.373063 0.777847 0.372928 -0.002548
H106  H     H_    0.393819 0.798267 0.409336 0.101579
H107  H     H_    0.376297 0.845021 0.347201 0.131458
C188  C     C_3   0.407909 0.688159 0.350653 -0.341404
H108  H     H_    0.388616 0.666025 0.314067 0.186549
H109  H     H_    0.454863 0.711117 0.345310 0.094257
H110  H     H_    0.406528 0.620628 0.376019 0.140637
O71   O     O_3   0.194098 0.231473 0.618223 -0.521123
C189  C     C_3   0.135398 0.268252 0.623817 0.006257
H111  H     H_    0.116208 0.293321 0.587475 0.107598
H112  H     H_    0.134040 0.334216 0.650580 0.140282
C190  C     C_3   0.096741 0.182146 0.644030 -0.348337
H113  H     H_    0.114929 0.153880 0.679987 0.187849
H114  H     H_    0.050966 0.211578 0.650076 0.095780
H115  H     H_    0.094986 0.117189 0.616983 0.132990
O72   O     O_3   0.813281 0.247667 0.378955 -0.515019
C191  C     C_3   0.872971 0.277672 0.372986 -0.002569
H116  H     H_    0.893699 0.297960 0.409422 0.101627
H117  H     H_    0.876194 0.344959 0.347327 0.131415
C192  C     C_3   0.907860 0.188120 0.350634 -0.341390
H118  H     H_    0.888585 0.166108 0.314023 0.186574
H119  H     H_    0.954805 0.211162 0.345320 0.094228
H120  H     H_    0.906504 0.120483 0.375935 0.140522
S5    S     S_3+6 0.508833 0.371693 0.859784 0.013334
O73   O     O_2   0.559092 0.428910 0.884247 -0.289614
O74   O     O_2   0.527507 0.342911 0.807892 -0.262561
O75   O     O_3   0.448850 0.449253 0.857228 -0.528100
H121  H     H_    0.461661 0.510142 0.837841 0.374451
S6    S     S_3+6 0.489445 0.372343 0.141769 0.017885
O76   O     O_2   0.471713 0.343836 0.193806 -0.264580
O77   O     O_2   0.542864 0.441382 0.143629 -0.275851
O78   O     O_3   0.432442 0.436600 0.115348 -0.535678
H122  H     H_    0.428003 0.500621 0.135340 0.384634
S7    S     S_3+6 0.008834 0.871692 0.859783 0.013330
O79   O     O_2   0.059092 0.928911 0.884246 -0.289585
O80   O     O_2   0.027508 0.842909 0.807892 -0.262604
O81   O     O_3   0.948851 0.949252 0.857226 -0.528099
H123  H     H_    0.961652 0.010114 0.837816 0.374447
S8    S     S_3+6 0.989445 0.872343 0.141769 0.017883
O82   O     O_2   0.971713 0.843837 0.193806 -0.264584
O83   O     O_2   0.042865 0.941382 0.143629 -0.275854
O84   O     O_3   0.932442 0.936600 0.115348 -0.535678
H124  H     H_    0.928004 0.000622 0.135340 0.384632
S9    S     S_3+6 0.652987 0.908081 0.860743 0.030168
O85   O     O_2   0.623757 0.809222 0.844633 -0.242423
O86   O     O_2   0.609901 0.971949 0.890379 -0.291483
O87   O     O_3   0.673644 0.974945 0.810163 -0.530803
H125  H     H_    0.636650 0.984975 0.790709 0.366104
S10   S     S_3+6 0.349219 0.896158 0.139752 0.032863
O88   O     O_2   0.376099 0.793483 0.153377 -0.250801
O89   O     O_2   0.393522 0.958120 0.111009 -0.281101
O90   O     O_3   0.331020 0.960886 0.191924 -0.527986
H126  H     H_    0.368364 0.965048 0.211376 0.364246
S11   S     S_3+6 0.152988 0.408091 0.860743 0.030171
O91   O     O_2   0.123757 0.309237 0.844630 -0.242390
O92   O     O_2   0.109905 0.471960 0.890380 -0.291513
O93   O     O_3   0.173648 0.474960 0.810166 -0.530794
H127  H     H_    0.136649 0.485045 0.790726 0.366129
S12   S     S_3+6 0.849219 0.396156 0.139751 0.032863
O94   O     O_2   0.876098 0.293480 0.153377 -0.250805
O95   O     O_2   0.893523 0.458114 0.111007 -0.281103
O96   O     O_3   0.831021 0.460887 0.191922 -0.527975
H128  H     H_    0.868366 0.465056 0.211372 0.364256

loop_
_geom_bond_atom_site_label_1
_geom_bond_atom_site_label_2
_ccdc_geom_bond_type
C99   C103  A    
C7    C168  A    
C146  H46   S    
O62   H98   S    
C55   C59   A    
S7    O80   D    
C54   H66   S    
C142  C146  A    
C77   C101  A    
C19   C20   A    
C53   C69   A    
C165  C169  A    
C38   C70   S    
C182  H89   S    
O55   C181  S    
C108  C164  S    
Cr9   O37   S    
C16   C20   A    
Cr10  O34   S    
C37   C69   S    
C192  H119  S    
C95   C99   A    
C29   C33   A    
C100  C104  A    
C23   H60   S    
C138  H38   S    
C3    C74   S    
C9    C13   A    
C146  C150  A    
O72   C191  S    
C131  C151  A    
C12   C16   A    
C56   C72   A    
C169  C174  A    
C179  H82   S    
Cr7   O31   S    
C60   S12   S    
Cr8   O28   S    
C123  H51   S    
C172  C175  A    
C141  C145  A    
C173  S1    S    
C138  C154  A    
C6    C165  A    
C21   C22   A    
C92   O40   A    
C112  H36   S    
C91   O3    A    
C41   C49   A    
C50   H14   S    
C25   C29   A    
C160  O8    A    
Cr1   O41   S    
C27   C31   A    
C46   O34   A    
C42   H10   S    
C186  H105  S    
C62   C66   A    
C183  H92   S    
C167  C171  A    
C98   C102  A    
C60   C76   A    
C44   H12   S    
C189  H112  S    
Cr1   O1    S    
C130  O54   S    
C78   C82   A    
C102  H25   S    
C134  C155  S    
C54   C70   A    
C68   C72   A    
O59   H97   S    
C179  C180  S    
C165  H2    S    
C1    O25   A    
C142  O70   S    
C184  H96   S    
C140  C156  A    
C135  O51   A    
C20   C172  A    
Cr11  O15   S    
C188  H108  S    
C128  H56   S    
S6    O77   D    
C189  C190  S    
C57   S9    S    
C62   H6    S    
C130  C138  A    
C182  H91   S    
C109  H33   S    
S12   O94   D    
Cr12  O16   S    
C137  C153  A    
C177  C178  S    
C84   C88   A    
C183  C184  S    
Cr9   O13   S    
Cr6   O18   S    
C67   H75   S    
Cr10  O10   S    
C119  C123  A    
C26   C90   S    
C5    C46   S    
Cr11  O39   S    
C144  O72   S    
C105  C125  A    
S8    O82   D    
C26   C50   A    
C8    C47   S    
C107  C127  A    
C7    C48   S    
C157  O9    A    
C136  C153  S    
C181  C182  S    
Cr1   O21   S    
C66   C70   A    
C163  O15   A    
Cr2   O18   S    
Cr3   O23   S    
C55   H67   S    
C191  H116  S    
Cr7   O27   S    
C92   O4    A    
C61   C65   A    
C31   H63   S    
C129  C137  A    
C178  H79   S    
C33   H69   S    
S3    O63   D    
C39   C71   S    
C117  C149  S    
C129  C149  A    
C48   O36   A    
C103  H28   S    
C55   C71   A    
C2    C75   S    
Cr12  O20   S    
Cr4   O24   S    
S1    O57   D    
O84   H124  S    
C6    C9    A    
C185  H101  S    
S11   O92   D    
O90   H126  S    
Cr7   O19   S    
Cr1   O45   S    
C64   C68   A    
Cr5   O29   S    
Cr2   O42   S    
Cr3   O47   S    
O65   H99   S    
Cr3   O3    S    
S4    O66   D    
C86   H30   S    
C57   C73   A    
C83   H19   S    
C123  C127  A    
C78   C158  S    
C87   C95   A    
C126  H54   S    
C188  H110  S    
C23   C24   A    
C27   C91   S    
C47   O31   A    
C110  C114  A    
C67   C71   A    
C143  O71   S    
S12   O96   S    
C89   O37   A    
C88   H32   S    
C44   C52   A    
C91   O39   A    
C173  C174  A    
C116  H44   S    
C180  H85   S    
C79   C103  A    
Cr10  O38   S    
C11   C15   A    
Cr11  O35   S    
Cr4   O4    S    
C27   C51   A    
Cr5   O5    S    
C174  S2    S    
C7    C12   A    
C98   H21   S    
C49   H13   S    
C140  H40   S    
Cr7   O7    S    
C30   C34   A    
C10   S5    S    
S8    O84   S    
C127  H55   S    
O75   H121  S    
C41   H9    S    
C10   C14   A    
C181  H87   S    
C108  C128  A    
C116  C120  A    
C88   C96   A    
C29   H61   S    
C144  C156  A    
C147  C151  A    
C121  C125  A    
C84   H20   S    
C143  C155  A    
S11   O91   D    
C139  C155  A    
C178  H81   S    
C157  O5    A    
C54   C58   A    
C17   C18   A    
C5    C166  A    
C142  C154  A    
C4    C73   S    
C42   C50   A    
C113  C117  A    
O87   H125  S    
C107  C163  S    
C26   C30   A    
S1    O59   S    
C115  C119  A    
C56   H68   S    
C14   C22   A    
C105  C161  S    
Cr4   O20   S    
S1    O58   D    
C61   H5    S    
C82   H18   S    
S5    O75   S    
C58   C74   A    
C188  H109  S    
C105  C109  A    
C40   C72   S    
C1    C76   S    
C107  C111  A    
C65   H73   S    
C148  C152  A    
C4    O24   A    
Cr2   O2    S    
C113  H41   S    
C21   H58   S    
C135  O47   A    
S9    O87   S    
C171  C176  A    
C100  H23   S    
S4    O68   S    
C13   C17   A    
C166  H1    S    
C2    O26   A    
O78   H122  S    
C161  O13   A    
C192  H118  S    
C136  O48   A    
C122  H50   S    
C63   C75   A    
C64   H8    S    
S3    O65   S    
C89   O1    A    
C36   H72   S    
C37   C41   A    
C131  C139  A    
Cr12  O36   S    
C40   C44   A    
S2    O60   D    
C24   H59   S    
C179  H83   S    
C46   O30   A    
Cr9   O17   S    
C81   C85   A    
Cr10  O14   S    
C147  H47   S    
Cr11  O11   S    
C83   C87   A    
Cr4   O44   S    
C6    C45   S    
C145  H45   S    
C78   C102  A    
C133  C156  S    
S3    O64   D    
C133  O49   A    
C80   C84   A    
C1    O21   A    
O93   H127  S    
Cr2   O22   S    
C15   C19   A    
Cr3   O19   S    
S9    O85   D    
C135  C154  S    
C80   C104  A    
C17   C169  A    
C186  H104  S    
C79   C159  S    
C124  H52   S    
C183  H93   S    
C80   C160  S    
C112  C116  A    
S10   O88   D    
C94   C98   A    
C12   S7    S    
C34   H70   S    
C139  H39   S    
C177  H78   S    
C118  C150  S    
Cr5   O49   S    
C95   C96   S    
S12   O95   D    
Cr7   O51   S    
C160  O12   A    
C184  H95   S    
C124  C128  A    
C18   C170  A    
S7    O81   S    
C159  O7    A    
Cr5   O25   S    
Cr2   O46   S    
C53   H65   S    
Cr6   O30   S    
Cr3   O43   S    
C133  O45   A    
C182  H90   S    
C51   H15   S    
S5    O73   D    
C68   H76   S    
C161  O41   A    
Cr8   O8    S    
C192  H120  S    
C53   C57   A    
C61   C73   A    
C134  O50   A    
C33   C37   A    
C108  C112  A    
C52   H16   S    
C45   O33   A    
C47   O35   A    
O96   H128  S    
C4    O28   A    
C8    C167  A    
C90   O38   A    
C93   C97   A    
C28   C32   A    
C101  H26   S    
C111  H35   S    
C191  H117  S    
Cr6   O6    S    
O81   H123  S    
C31   C35   A    
C175  S3    S    
C187  H107  S    
C110  H34   S    
C32   C36   A    
O71   C189  S    
Cr11  O19   S    
C132  O56   S    
Cr8   O52   S    
C104  H27   S    
C191  C192  S    
C185  H102  S    
C132  C140  A    
C106  C126  A    
C25   C89   S    
C158  O6    A    
C187  C188  S    
C189  H111  S    
C82   C86   A    
C79   C83   A    
C43   C51   A    
C3    O23   A    
C65   C69   A    
S4    O67   D    
Cr9   O33   S    
C106  C162  S    
O54   C179  S    
C25   C49   A    
C185  C186  S    
C56   C60   A    
C168  C172  A    
Cr6   O50   S    
S7    O79   D    
C190  H114  S    
S6    O76   D    
C62   C74   A    
C66   H74   S    
C145  C149  A    
S8    O83   D    
C170  C173  A    
C129  O53   S    
C93   C94   S    
C180  H84   S    
C14   C18   A    
C35   C39   A    
O68   H100  S    
C3    O27   A    
C144  C148  A    
C141  C153  A    
Cr8   O32   S    
C162  O14   A    
O56   C183  S    
C136  O52   A    
C143  C147  A    
C167  H4    S    
C35   H71   S    
C176  S4    S    
C168  H3    S    
C90   O2    A    
C19   C171  A    
C38   C42   A    
C87   H31   S    
C118  C122  A    
Cr12  O40   S    
C181  H88   S    
C96   C100  A    
C117  C121  A    
C85   H29   S    
C86   C94   A    
C141  O69   S    
C175  C176  A    
C178  H80   S    
S6    O78   S    
C164  O44   A    
C137  H37   S    
C125  H53   S    
C77   C81   A    
Cr10  O18   S    
C115  H43   S    
Cr8   O20   S    
C2    O22   A    
C15   C23   A    
S9    O86   D    
C85   C93   A    
S5    O74   D    
C158  O10   A    
S11   O93   S    
C99   H24   S    
C119  C151  S    
C63   C67   A    
C120  C152  S    
C97   H22   S    
C13   C21   A    
Cr4   O48   S    
C36   C40   A    
C39   C43   A    
Cr12  O12   S    
C30   H62   S    
C148  H48   S    
C122  C126  A    
C130  C150  A    
C177  H77   S    
Cr9   O9    S    
C190  H115  S    
C64   C76   A    
C28   C92   S    
Cr6   O26   S    
O70   C187  S    
C114  C118  A    
Cr1   O17   S    
C134  O46   A    
S2    O61   D    
C180  H86   S    
C162  O42   A    
Cr5   O17   S    
C59   C75   A    
C81   H17   S    
O69   C185  S    
C106  C110  A    
C58   S10   S    
C34   C38   A    
C45   O29   A    
C121  H49   S    
C48   O32   A    
C114  H42   S    
C22   H57   S    
C43   H11   S    
C109  C113  A    
S2    O62   S    
C32   H64   S    
C59   S11   S    
C159  O11   A    
C5    C10   A    
C186  H103  S    
C28   C52   A    
C190  H113  S    
S10   O89   D    
C187  H106  S    
C8    C11   A    
C132  C152  A    
C166  C170  A    
C11   S8    S    
C63   H7    S    
C163  O43   A    
O53   C177  S    
C9    S6    S    
C131  O55   S    
C16   C24   A    
C164  O16   A    
C111  C115  A    
C184  H94   S    
C97   C101  A    
C120  C124  A    
C77   C157  S    
S10   O90   S    
