data_str_m2_o25_o25_f0_pcu.sym.214
_audit_creation_date              2012-12-10T18:23:58-0500
_audit_creation_method            fapswitch 2.2
_symmetry_space_group_name_H-M    P1
_symmetry_Int_Tables_number       1
_space_group_crystal_system       triclinic
_cell_length_a                    22.458901
_cell_length_b                    22.473836
_cell_length_c                    14.663829
_cell_angle_alpha                 90.277993
_cell_angle_beta                  90.76924
_cell_angle_gamma                 90.180029
_cell_volume                      7400.59447915

loop_
_atom_site_label
_atom_site_type_symbol
_atom_type_description
_atom_site_fract_x
_atom_site_fract_y
_atom_site_fract_z
_atom_type_partial_charge
C1    C     C_R   0.418855 0.920947 0.499528 0.825720
C2    C     C_1   0.661982 0.837247 0.499449 0.028172
C3    C     C_3   0.061018 0.890359 0.309274 -0.960548
C4    C     C_3   0.662382 0.655493 0.357569 0.144444
C5    C     C_3   0.628464 0.596619 0.349728 -0.345043
C6    C     C_3   0.571609 0.603257 0.292506 -0.950084
C7    C     C_3   0.342197 0.343540 0.631601 0.115047
C8    C     C_3   0.342633 0.356776 0.733874 -0.338776
C9    C     C_3   0.405684 0.354599 0.773768 -0.950793
C10   C     C_3   0.337611 0.648723 0.609228 0.126246
C11   C     C_3   0.376076 0.593324 0.597776 -0.364366
C12   C     C_3   0.429497 0.594328 0.663219 -0.940858
C13   C     C_1   0.659162 0.165522 0.499067 0.090695
C14   C     C_3   0.639929 0.365446 0.427015 0.096539
C15   C     C_3   0.627850 0.390198 0.331636 -0.317866
C16   C     C_3   0.561356 0.390147 0.308563 -0.960604
C17   C     C_3   0.596796 0.720467 0.571030 0.071556
C18   C     C_3   0.583750 0.756083 0.657477 -0.307932
C19   C     C_3   0.521793 0.783449 0.654099 -0.957428
C20   C     C_3   0.354468 0.346053 0.400166 0.104647
C21   C     C_3   0.371806 0.349503 0.299853 -0.327731
C22   C     C_3   0.369581 0.413340 0.265033 -0.950384
C23   C     C_3   0.389777 0.727684 0.410750 0.093677
C24   C     C_1   0.332455 0.843276 0.499976 0.054705
C25   C     C_3   0.423721 0.768059 0.345601 -0.309331
C26   C     C_3   0.486626 0.781339 0.380674 -0.975305
C27   C     C_3   0.652675 0.337645 0.652188 0.104393
C28   C     C_3   0.647351 0.332102 0.755673 -0.348950
C29   C     C_3   0.656828 0.391983 0.803313 -0.940705
C30   C     C_3   0.096747 0.220320 0.570937 0.071988
C31   C     C_3   0.083335 0.256049 0.657130 -0.308117
C32   C     C_3   0.021392 0.283408 0.653075 -0.957301
C33   C     C_3   0.854632 0.846144 0.400412 0.104718
C34   C     C_3   0.871996 0.849525 0.300103 -0.327494
C35   C     C_1   0.837287 0.661441 0.502135 0.095671
C36   C     C_3   0.869847 0.913347 0.265210 -0.950493
C37   C     C_3   0.889902 0.227753 0.410548 0.093311
C38   C     C_3   0.923500 0.268232 0.345126 -0.309354
C39   C     C_3   0.986415 0.281859 0.379844 -0.974330
C40   C     C_3   0.152659 0.837567 0.652503 0.104417
C41   C     C_3   0.147410 0.831924 0.755983 -0.348980
C42   C     C_3   0.156818 0.891780 0.803726 -0.940675
C43   C     C_3   0.711835 0.827437 0.294888 0.079286
C44   C     C_3   0.645712 0.826286 0.268896 -0.403716
C45   C     C_3   0.624623 0.887755 0.239110 -0.825601
C46   C     C_1   0.161915 0.337181 0.499485 0.028307
C47   C     C_3   0.309808 0.188592 0.712543 0.055378
C48   C     C_3   0.289897 0.123304 0.714834 -0.339015
C49   C     C_3   0.337310 0.084045 0.759174 -0.871459
C50   C     C_3   0.304141 0.816253 0.710410 0.074212
C51   C     C_3   0.371681 0.816847 0.725231 -0.410352
C52   C     C_3   0.392527 0.875181 0.769201 -0.785288
C53   C     C_3   0.649437 0.228804 0.302766 0.066471
C54   C     C_3   0.648124 0.165860 0.262394 -0.350934
C55   C     C_3   0.584749 0.146668 0.236957 -0.834178
C56   C     C_3   0.211621 0.327170 0.294831 0.079540
C57   C     C_1   0.159123 0.665559 0.499073 0.090719
C58   C     C_3   0.145481 0.326144 0.268934 -0.403715
C59   C     C_3   0.124508 0.387637 0.239073 -0.825578
C60   C     C_3   0.809774 0.688603 0.712513 0.055551
C61   C     C_3   0.790063 0.623258 0.714850 -0.339183
C62   C     C_3   0.837586 0.584161 0.759250 -0.871180
C63   C     C_3   0.804084 0.316261 0.710405 0.074330
C64   C     C_3   0.871610 0.316904 0.725349 -0.410531
C65   C     C_3   0.892388 0.375256 0.769336 -0.785638
C66   C     C_3   0.149271 0.728962 0.302866 0.066493
C67   C     C_3   0.147973 0.666046 0.262386 -0.350935
C68   C     C_1   0.832527 0.343206 0.499961 0.054460
C69   C     C_3   0.084599 0.646843 0.236961 -0.833915
C70   C     C_3   0.413149 0.133101 0.007108 0.118624
C71   C     C_3   0.432500 0.197086 0.027517 -0.312504
C72   C     C_3   0.408436 0.239848 0.955526 -0.975109
C73   C     C_3   0.614559 0.921518 0.893611 0.090855
C74   C     C_3   0.629379 0.876605 0.819066 -0.360170
C75   C     C_3   0.689809 0.889694 0.777428 -0.883312
C76   C     C_3   0.547834 0.132514 0.875988 0.054452
C77   C     C_3   0.604247 0.120032 0.821849 -0.399580
C78   C     C_3   0.605993 0.157042 0.735154 -0.788335
C79   C     C_1   0.499378 0.999094 0.194619 0.263807
C80   C     C_3   0.482343 0.860053 0.099174 0.091376
C81   C     C_3   0.468158 0.795195 0.075319 -0.301085
C82   C     C_3   0.514742 0.752908 0.115091 -0.955087
C83   C     C_3   0.913352 0.633207 0.007090 0.118668
C84   C     C_3   0.932765 0.697174 0.027496 -0.312565
C85   C     C_3   0.908738 0.739955 0.955503 -0.975062
C86   C     C_3   0.114452 0.421367 0.893549 0.090901
C87   C     C_3   0.129186 0.376432 0.818989 -0.360262
C88   C     C_3   0.189521 0.389570 0.777061 -0.882764
C89   C     C_3   0.048082 0.632420 0.875989 0.054606
C90   C     C_1   0.500206 0.002324 0.805366 0.221065
C91   C     C_3   0.104482 0.619797 0.821891 -0.399817
C92   C     C_3   0.106350 0.656801 0.735200 -0.788278
C93   C     C_3   0.982192 0.360023 0.099067 0.091404
C94   C     C_3   0.968146 0.295219 0.074673 -0.300996
C95   C     C_3   0.014682 0.252868 0.114410 -0.954674
C96   C     C_1   0.999381 0.499089 0.194620 0.263917
C97   C     C_R   0.579965 0.080353 0.500414 0.822794
C98   C     C_1   0.000215 0.502319 0.805366 0.220973
C99   C     C_3   0.526526 0.053605 0.975443 0.252647
C100  C     C_3   0.474544 0.950979 0.025451 0.312476
C101  C     C_3   0.469753 0.047933 0.033659 0.304780
C102  C     C_3   0.530675 0.956399 0.966771 0.307831
C103  C     C_3   0.026619 0.553555 0.975447 0.252638
C104  C     C_3   0.974489 0.451005 0.025455 0.312581
C105  C     C_3   0.969837 0.547966 0.033660 0.304723
C106  C     C_3   0.030628 0.456344 0.966774 0.307829
C107  C     C_3   0.699044 0.726462 0.538880 0.323242
C108  C     C_R   0.580541 0.920206 0.500239 0.820312
C109  C     C_3   0.298607 0.269139 0.464294 0.282507
C110  C     C_3   0.288535 0.740357 0.443929 0.356393
C111  C     C_3   0.700475 0.270356 0.555637 0.268979
C112  C     C_3   0.199028 0.226435 0.539118 0.323530
C113  C     C_3   0.798717 0.769227 0.464426 0.282516
C114  C     C_3   0.788648 0.240218 0.443963 0.355928
C115  C     C_3   0.200419 0.770376 0.555748 0.269099
C116  C     C_3   0.231270 0.200001 0.455943 0.350710
C117  C     C_3   0.766732 0.796025 0.548122 0.273677
C118  C     C_3   0.768053 0.203575 0.526200 0.307116
C119  C     C_R   0.419886 0.080085 0.499817 0.821369
C120  C     C_3   0.221021 0.807256 0.472212 0.264883
C121  C     C_3   0.731371 0.700115 0.455710 0.350809
C122  C     C_3   0.266709 0.296019 0.548011 0.273693
C123  C     C_3   0.268010 0.703641 0.526130 0.306431
C124  C     C_3   0.721142 0.307168 0.472071 0.264893
C125  C     C_1   0.375114 0.124261 0.499984 -0.164321
C126  C     C_1   0.625117 0.875575 0.500454 -0.178649
C127  C     C_1   0.623116 0.126381 0.500657 -0.193032
C128  C     C_1   0.371694 0.879171 0.498924 -0.186876
C129  C     C_1   0.875131 0.624277 0.499975 -0.164373
C130  C     C_R   0.918859 0.420946 0.499528 0.825513
C131  C     C_1   0.125076 0.375533 0.500465 -0.178572
C132  C     C_1   0.123096 0.626400 0.500657 -0.193116
C133  C     C_1   0.871731 0.379135 0.498923 -0.186713
C134  C     C_3   0.259366 0.233496 0.589422 0.322557
C135  C     C_3   0.738564 0.762684 0.413664 0.264443
C136  C     C_3   0.723413 0.249972 0.413737 0.336297
C137  C     C_3   0.265757 0.760784 0.585922 0.244809
C138  C     C_3   0.759329 0.733459 0.589351 0.322618
C139  C     C_3   0.238398 0.262522 0.413711 0.264381
C140  C     C_3   0.223285 0.750098 0.413789 0.336269
C141  C     C_R   0.079963 0.580356 0.500413 0.822786
C142  C     C_3   0.765791 0.260753 0.585902 0.245166
C143  C     C_3   0.291357 0.206492 0.506099 -0.212138
C144  C     C_3   0.705678 0.789649 0.497614 -0.276101
C145  C     C_3   0.702958 0.212924 0.496331 -0.197482
C146  C     C_3   0.286764 0.797740 0.502242 -0.248423
C147  C     C_3   0.791402 0.706536 0.506046 -0.211922
C148  C     C_3   0.205604 0.289575 0.497678 -0.276037
C149  C     C_3   0.202895 0.712982 0.496351 -0.197414
C150  C     C_3   0.786868 0.297641 0.502193 -0.248773
C151  C     C_3   0.555828 0.003918 0.034474 0.275086
C152  C     C_R   0.080534 0.420198 0.500240 0.820183
C153  C     C_3   0.444597 0.999789 0.967474 0.307933
C154  C     C_3   0.055846 0.503827 0.034481 0.275078
C155  C     C_3   0.944612 0.499856 0.967478 0.307970
C156  C     C_3   0.499065 0.998780 0.092803 -0.274050
C157  C     C_3   0.500894 0.005273 0.907375 -0.309275
C158  C     C_3   0.999076 0.498772 0.092805 -0.274029
C159  C     C_3   0.000916 0.505261 0.907377 -0.309364
C160  C     C_3   0.343158 0.993629 0.998354 0.121060
C161  C     C_3   0.301986 0.940616 0.979085 -0.336492
C162  C     C_3   0.250882 0.938249 0.046520 -0.910049
C163  C     C_R   0.919889 0.580087 0.499816 0.821397
C164  C     C_3   0.652564 0.041233 0.042927 0.089932
C165  C     C_3   0.714852 0.027667 0.080119 -0.374684
C166  C     C_3   0.760243 0.073140 0.047199 -0.907711
C167  C     C_3   0.843160 0.493843 0.998356 0.120997
C168  C     C_3   0.801951 0.440848 0.979149 -0.336395
C169  C     C_3   0.750828 0.438567 0.046559 -0.910293
C170  C     C_3   0.152626 0.541017 0.043020 0.090030
C171  C     C_3   0.214883 0.527377 0.080273 -0.374623
C172  C     C_3   0.260336 0.572820 0.047450 -0.907737
C173  C     C_3   0.162262 0.155278 0.357892 0.145640
C174  C     C_1   0.337257 0.161412 0.502163 0.095604
C175  C     C_3   0.127765 0.096672 0.351593 -0.345777
C176  C     C_3   0.071035 0.103200 0.294048 -0.950097
C177  C     C_3   0.842207 0.843502 0.631796 0.115031
C178  C     C_3   0.842717 0.856753 0.734063 -0.339190
C179  C     C_3   0.905802 0.854632 0.773834 -0.950674
C180  C     C_3   0.837857 0.148769 0.609075 0.126809
C181  C     C_3   0.876361 0.093425 0.597292 -0.364294
C182  C     C_3   0.930061 0.094544 0.662189 -0.941216
C183  C     C_3   0.139742 0.865521 0.427415 0.096508
C184  C     C_3   0.127543 0.890363 0.332127 -0.317751
Cu1   Cu    Cu3+1 0.500000 1.000000 0.590220 0.949099
Cu2   Cu    Cu3+1 0.500000 1.000000 0.409780 0.975658
Cu3   Cu    Cu3+1 0.000000 0.500000 0.590220 0.949109
Cu4   Cu    Cu3+1 0.000000 0.500000 0.409780 0.975645
H1    H     H_    0.316366 0.035032 0.995736 0.137097
H2    H     H_    0.714271 0.028334 0.155938 0.232397
H3    H     H_    0.394340 0.745185 0.481519 0.107431
H4    H     H_    0.426028 0.746204 0.277639 0.225140
H5    H     H_    0.399453 0.810710 0.337138 0.238908
H6    H     H_    0.485144 0.802460 0.449073 0.254521
H7    H     H_    0.508780 0.812745 0.333760 0.261984
H8    H     H_    0.513019 0.739724 0.384529 0.242076
H9    H     H_    0.613445 0.362813 0.626776 0.132580
H10   H     H_    0.692780 0.364325 0.635114 0.141098
H11   H     H_    0.602329 0.314924 0.772260 0.211441
H12   H     H_    0.680647 0.299821 0.781935 0.239008
H13   H     H_    0.728432 0.982508 0.057322 0.215623
H14   H     H_    0.702106 0.409485 0.789450 0.246670
H15   H     H_    0.652278 0.386422 0.878092 0.262461
H16   H     H_    0.623115 0.424568 0.779152 0.261893
H17   H     H_    0.063187 0.184080 0.564243 0.154756
H18   H     H_    0.091528 0.247356 0.508240 0.121104
H19   H     H_    0.086375 0.226231 0.717270 0.229763
H20   H     H_    0.116990 0.291853 0.666026 0.232376
H21   H     H_    0.019158 0.318129 0.599701 0.261238
H22   H     H_    0.011644 0.304359 0.719815 0.267404
H23   H     H_    0.987195 0.248700 0.638536 0.243752
H24   H     H_    0.762243 0.072546 0.971537 0.252006
H25   H     H_    0.889318 0.869870 0.441276 0.134067
H26   H     H_    0.812043 0.870086 0.411545 0.136461
H27   H     H_    0.917860 0.831936 0.292140 0.222524
H28   H     H_    0.841386 0.821395 0.258199 0.239958
H29   H     H_    0.823960 0.931295 0.270234 0.252706
H30   H     H_    0.883242 0.914242 0.192615 0.261095
H31   H     H_    0.900960 0.942018 0.305467 0.262502
H32   H     H_    0.911068 0.183142 0.410302 0.150319
H33   H     H_    0.894521 0.245318 0.481268 0.107509
H34   H     H_    0.925769 0.246321 0.277201 0.225027
H35   H     H_    0.804979 0.062048 0.075303 0.263043
H36   H     H_    0.899001 0.310753 0.336680 0.238972
H37   H     H_    0.984965 0.303173 0.448100 0.254551
H38   H     H_    0.008358 0.313212 0.332618 0.261923
H39   H     H_    0.012989 0.240368 0.383891 0.241850
H40   H     H_    0.113404 0.862748 0.627217 0.132605
H41   H     H_    0.192747 0.864275 0.635426 0.141054
H42   H     H_    0.102427 0.814656 0.772602 0.211499
H43   H     H_    0.180778 0.799676 0.782129 0.238989
H44   H     H_    0.202055 0.909372 0.789815 0.246675
H45   H     H_    0.152333 0.886146 0.878502 0.262463
H46   H     H_    0.748088 0.118512 0.070726 0.260203
H47   H     H_    0.123032 0.924326 0.779688 0.261869
H48   H     H_    0.737104 0.841555 0.234083 0.160994
H49   H     H_    0.720836 0.861622 0.348331 0.134115
H50   H     H_    0.638002 0.794081 0.212176 0.223621
H51   H     H_    0.619293 0.811247 0.327875 0.220351
H52   H     H_    0.638343 0.922226 0.289723 0.267515
H53   H     H_    0.575409 0.887983 0.233421 0.240586
H54   H     H_    0.643706 0.899039 0.171879 0.271061
H55   H     H_    0.322569 0.202287 0.783046 0.162263
H56   H     H_    0.350511 0.195087 0.671468 0.117667
H57   H     H_    0.816397 0.535264 0.995676 0.137110
H58   H     H_    0.248206 0.119568 0.754451 0.237713
H59   H     H_    0.280329 0.106998 0.644597 0.231192
H60   H     H_    0.380626 0.089514 0.724659 0.269342
H61   H     H_    0.323461 0.036638 0.754397 0.268918
H62   H     H_    0.342821 0.096139 0.832244 0.250660
H63   H     H_    0.283096 0.823721 0.777529 0.163492
H64   H     H_    0.290419 0.854077 0.666524 0.135010
H65   H     H_    0.384810 0.779260 0.770135 0.228554
H66   H     H_    0.394038 0.810825 0.658887 0.222858
H67   H     H_    0.377434 0.913797 0.728087 0.264058
H68   H     H_    0.861637 0.489884 0.069125 0.163336
H69   H     H_    0.441843 0.876160 0.774275 0.265446
H70   H     H_    0.374511 0.879208 0.838953 0.261489
H71   H     H_    0.630170 0.259535 0.251274 0.159034
H72   H     H_    0.620157 0.231644 0.363097 0.115568
H73   H     H_    0.675923 0.164443 0.200276 0.227003
H74   H     H_    0.667183 0.133992 0.312403 0.232510
H75   H     H_    0.555360 0.149897 0.297062 0.264492
H76   H     H_    0.584929 0.099821 0.212744 0.273635
H77   H     H_    0.566666 0.175186 0.181527 0.254107
H78   H     H_    0.236886 0.341171 0.233960 0.160929
H79   H     H_    0.783329 0.444175 0.908737 0.214199
H80   H     H_    0.220714 0.361390 0.348187 0.134032
H81   H     H_    0.137668 0.293912 0.212281 0.223684
H82   H     H_    0.119063 0.311209 0.327977 0.220529
H83   H     H_    0.138313 0.422112 0.289627 0.267502
H84   H     H_    0.075293 0.387965 0.233420 0.240564
H85   H     H_    0.143594 0.398838 0.171811 0.271085
H86   H     H_    0.822477 0.702365 0.783010 0.162173
H87   H     H_    0.850468 0.695197 0.671453 0.117573
H88   H     H_    0.748374 0.619407 0.754446 0.237628
H89   H     H_    0.780561 0.606901 0.644620 0.231102
H90   H     H_    0.827822 0.398938 0.984474 0.246689
H91   H     H_    0.880900 0.589765 0.724779 0.269214
H92   H     H_    0.823891 0.536709 0.754482 0.269107
H93   H     H_    0.843025 0.596288 0.832318 0.250615
H94   H     H_    0.782979 0.323729 0.777478 0.163518
H95   H     H_    0.790382 0.354067 0.666466 0.134994
H96   H     H_    0.884733 0.279329 0.770282 0.228573
H97   H     H_    0.894012 0.310895 0.659041 0.223078
H98   H     H_    0.877353 0.413854 0.728133 0.264066
H99   H     H_    0.941699 0.376239 0.774584 0.265404
H100  H     H_    0.874270 0.379307 0.839020 0.261438
H101  H     H_    0.768413 0.434385 0.117409 0.269102
H102  H     H_    0.129963 0.759722 0.251451 0.158989
H103  H     H_    0.120019 0.731742 0.363237 0.115546
H104  H     H_    0.175753 0.664686 0.200243 0.227021
H105  H     H_    0.167061 0.634150 0.312326 0.232497
H106  H     H_    0.055237 0.649980 0.297108 0.264453
H107  H     H_    0.084795 0.600025 0.212613 0.273521
H108  H     H_    0.066473 0.675416 0.181632 0.254034
H109  H     H_    0.363890 0.130499 0.011281 0.135959
H110  H     H_    0.425100 0.121470 0.935766 0.127391
H111  H     H_    0.415886 0.210674 0.095567 0.226366
H112  H     H_    0.361643 0.989641 0.069113 0.163352
H113  H     H_    0.722096 0.399424 0.030984 0.256282
H114  H     H_    0.481896 0.199856 0.029289 0.239396
H115  H     H_    0.425598 0.227733 0.887222 0.247457
H116  H     H_    0.423129 0.285842 0.972462 0.264962
H117  H     H_    0.358986 0.238582 0.953542 0.262786
H118  H     H_    0.649681 0.920140 0.947696 0.170290
H119  H     H_    0.614176 0.966573 0.862194 0.116510
H120  H     H_    0.629746 0.830983 0.848045 0.230285
H121  H     H_    0.594531 0.878654 0.764662 0.239628
H122  H     H_    0.689564 0.934046 0.744308 0.262034
H123  H     H_    0.699770 0.855396 0.725221 0.300912
H124  H     H_    0.723365 0.479454 0.041194 0.254172
H125  H     H_    0.725222 0.888674 0.830979 0.241123
H126  H     H_    0.542667 0.181480 0.882748 0.167293
H127  H     H_    0.507302 0.116752 0.838813 0.124933
H128  H     H_    0.644111 0.131226 0.864402 0.226266
H129  H     H_    0.606257 0.072071 0.803775 0.206662
H130  H     H_    0.565557 0.148771 0.692601 0.258564
H131  H     H_    0.646143 0.145185 0.695778 0.273288
H132  H     H_    0.608343 0.205055 0.752621 0.257215
H133  H     H_    0.473471 0.867761 0.172680 0.132099
H134  H     H_    0.530655 0.867773 0.087520 0.183264
H135  H     H_    0.139769 0.586041 0.067342 0.202054
H136  H     H_    0.423537 0.783405 0.101850 0.212699
H137  H     H_    0.467042 0.789612 0.999919 0.242133
H138  H     H_    0.558690 0.761151 0.083577 0.264742
H139  H     H_    0.501297 0.706175 0.100752 0.262190
H140  H     H_    0.519126 0.759058 0.189916 0.262969
H141  H     H_    0.864090 0.630654 0.011247 0.135949
H142  H     H_    0.925306 0.621565 0.935754 0.127420
H143  H     H_    0.916167 0.710781 0.095547 0.226351
H144  H     H_    0.982163 0.699897 0.029258 0.239358
H145  H     H_    0.925881 0.727818 0.887198 0.247517
H146  H     H_    0.153920 0.539921 0.967206 0.137063
H147  H     H_    0.923480 0.785936 0.972430 0.264957
H148  H     H_    0.859287 0.738740 0.953529 0.262759
H149  H     H_    0.149607 0.419961 0.947584 0.170164
H150  H     H_    0.114099 0.466422 0.862135 0.116538
H151  H     H_    0.129663 0.330827 0.848029 0.230148
H152  H     H_    0.094232 0.378407 0.764736 0.239571
H153  H     H_    0.189141 0.433883 0.743820 0.262002
H154  H     H_    0.199455 0.355232 0.724899 0.300737
H155  H     H_    0.225029 0.388674 0.830472 0.241085
H156  H     H_    0.043023 0.681399 0.882719 0.167292
H157  H     H_    0.214265 0.528015 0.156091 0.232394
H158  H     H_    0.007523 0.616739 0.838803 0.124903
H159  H     H_    0.144361 0.630892 0.864470 0.226216
H160  H     H_    0.106378 0.571831 0.803817 0.206622
H161  H     H_    0.065870 0.648692 0.692674 0.258643
H162  H     H_    0.146441 0.644790 0.695793 0.273030
H163  H     H_    0.108891 0.704804 0.752675 0.257445
H164  H     H_    0.973189 0.367490 0.172587 0.132240
H165  H     H_    0.030518 0.367854 0.087688 0.183002
H166  H     H_    0.923470 0.283290 0.100855 0.212654
H167  H     H_    0.967227 0.289868 0.999232 0.242230
H168  H     H_    0.228432 0.482214 0.057453 0.215611
H169  H     H_    0.058717 0.261307 0.083293 0.264754
H170  H     H_    0.001360 0.206165 0.099561 0.262111
H171  H     H_    0.018818 0.258740 0.189314 0.262900
H172  H     H_    0.262371 0.572255 0.971791 0.251958
H173  H     H_    0.305047 0.561671 0.075592 0.263030
H174  H     H_    0.248214 0.618194 0.071010 0.260252
H175  H     H_    0.175242 0.168899 0.288132 0.182391
H176  H     H_    0.283345 0.943976 0.908689 0.214169
H177  H     H_    0.132142 0.189810 0.386319 0.114269
H178  H     H_    0.156365 0.061924 0.320634 0.227258
H179  H     H_    0.115676 0.082105 0.421311 0.232781
H180  H     H_    0.040943 0.136465 0.325302 0.253575
H181  H     H_    0.047426 0.059752 0.290144 0.264925
H182  H     H_    0.082015 0.117472 0.223804 0.262328
H183  H     H_    0.869764 0.877687 0.597751 0.136977
H184  H     H_    0.863768 0.799517 0.620037 0.137178
H185  H     H_    0.823909 0.901753 0.746115 0.226450
H186  H     H_    0.814658 0.823540 0.769509 0.243434
H187  H     H_    0.327891 0.898721 0.984327 0.246635
H188  H     H_    0.925172 0.809657 0.764181 0.254423
H189  H     H_    0.904686 0.864795 0.847944 0.263100
H190  H     H_    0.934528 0.888110 0.740236 0.258550
H191  H     H_    0.820116 0.149398 0.679503 0.187473
H192  H     H_    0.866565 0.188626 0.599537 0.125056
H193  H     H_    0.849248 0.053002 0.610687 0.231157
H194  H     H_    0.892320 0.091136 0.525925 0.222234
H195  H     H_    0.958733 0.133721 0.648068 0.252889
H196  H     H_    0.956737 0.053535 0.652510 0.259835
H197  H     H_    0.915217 0.096493 0.734097 0.261418
H198  H     H_    0.268489 0.934017 0.117349 0.269182
H199  H     H_    0.119735 0.896377 0.477652 0.136050
H200  H     H_    0.117004 0.821766 0.434832 0.129792
H201  H     H_    0.144819 0.936700 0.328559 0.223475
H202  H     H_    0.151256 0.863254 0.280662 0.236224
H203  H     H_    0.043114 0.844222 0.309968 0.252805
H204  H     H_    0.053657 0.909211 0.240203 0.264039
H205  H     H_    0.036561 0.917941 0.359378 0.258813
H206  H     H_    0.675239 0.669979 0.288169 0.182671
H207  H     H_    0.631929 0.689401 0.386879 0.114783
H208  H     H_    0.657374 0.562538 0.317739 0.227078
H209  H     H_    0.222166 0.899102 0.030890 0.256271
H210  H     H_    0.616594 0.581094 0.419048 0.232893
H211  H     H_    0.541189 0.635775 0.324829 0.253749
H212  H     H_    0.548471 0.559604 0.287330 0.264945
H213  H     H_    0.582361 0.618562 0.222691 0.262279
H214  H     H_    0.369784 0.377728 0.597617 0.136850
H215  H     H_    0.363766 0.299558 0.619843 0.137150
H216  H     H_    0.323847 0.401787 0.745907 0.226265
H217  H     H_    0.314519 0.323582 0.769259 0.243760
H218  H     H_    0.425025 0.309608 0.764142 0.254400
H219  H     H_    0.404514 0.364753 0.847878 0.263081
H220  H     H_    0.223395 0.979126 0.041255 0.254142
H221  H     H_    0.434467 0.388057 0.740237 0.258551
H222  H     H_    0.319589 0.649358 0.679485 0.187684
H223  H     H_    0.366422 0.688535 0.599943 0.125462
H224  H     H_    0.348837 0.552937 0.610845 0.231244
H225  H     H_    0.392344 0.591043 0.526577 0.222036
H226  H     H_    0.458280 0.633484 0.649471 0.252957
H227  H     H_    0.456165 0.553294 0.653739 0.259836
H228  H     H_    0.414338 0.596237 0.734971 0.261355
H229  H     H_    0.619881 0.396363 0.477127 0.136028
H230  H     H_    0.617159 0.321713 0.434489 0.129774
H231  H     H_    0.639673 0.086251 0.067228 0.202128
H232  H     H_    0.645113 0.436540 0.328029 0.223511
H233  H     H_    0.651647 0.363055 0.280306 0.236334
H234  H     H_    0.543467 0.344005 0.309293 0.252796
H235  H     H_    0.554087 0.408934 0.239429 0.263949
H236  H     H_    0.536816 0.417765 0.358524 0.258906
H237  H     H_    0.563105 0.684342 0.564419 0.155063
H238  H     H_    0.591478 0.747616 0.508473 0.121308
H239  H     H_    0.587029 0.726181 0.717493 0.230015
H240  H     H_    0.617443 0.791871 0.666172 0.232370
H241  H     H_    0.519325 0.818216 0.600810 0.261427
H242  H     H_    0.653823 0.040122 0.967111 0.137080
H243  H     H_    0.512316 0.804329 0.720990 0.267473
H244  H     H_    0.487540 0.748750 0.639828 0.243902
H245  H     H_    0.389164 0.369746 0.441055 0.134103
H246  H     H_    0.311883 0.369990 0.411351 0.136573
H247  H     H_    0.417686 0.331965 0.291843 0.222563
H248  H     H_    0.341212 0.321363 0.257934 0.239729
H249  H     H_    0.323672 0.431232 0.270082 0.252713
H250  H     H_    0.382969 0.414287 0.192437 0.261081
H251  H     H_    0.400662 0.442028 0.305317 0.262492
H252  H     H_    0.410705 0.682960 0.410508 0.150422
N1    N     N_1   0.499980 0.000000 0.274190 -0.166666
N2    N     N_1   0.500020 1.000000 0.725810 -0.170640
N3    N     N_1   0.999980 0.500000 0.274190 -0.166636
N4    N     N_1   0.000020 0.500000 0.725810 -0.170586
O1    O     O_R   0.439540 0.939530 0.576170 -0.575782
O2    O     O_R   0.560470 0.060470 0.576200 -0.575584
O3    O     O_R   0.560470 0.939530 0.576200 -0.569836
O4    O     O_R   0.439530 0.060470 0.423800 -0.553493
O5    O     O_R   0.939530 0.439530 0.423800 -0.565862
O6    O     O_R   0.060470 0.560470 0.576200 -0.575619
O7    O     O_R   0.060470 0.439530 0.576200 -0.569754
O8    O     O_R   0.939530 0.560470 0.423800 -0.553529
O9    O     O_3   0.386576 0.996811 0.929463 -0.616039
O10   O     O_3   0.612667 0.998413 0.076181 -0.626463
O11   O     O_3   0.886586 0.496957 0.929468 -0.616083
O12   O     O_R   0.560460 0.060470 0.423830 -0.573277
O13   O     O_3   0.112673 0.498225 0.076196 -0.626441
O14   O     O_3   0.214308 0.146597 0.411354 -0.577546
O15   O     O_3   0.783268 0.847922 0.597079 -0.601458
O16   O     O_3   0.789793 0.146051 0.546245 -0.589484
O17   O     O_3   0.201867 0.864150 0.443754 -0.587233
O18   O     O_3   0.714467 0.646765 0.410909 -0.577262
O19   O     O_3   0.283284 0.347978 0.596783 -0.601447
O20   O     O_3   0.289799 0.646101 0.545946 -0.589675
O21   O     O_3   0.702035 0.364059 0.443517 -0.587282
O22   O     O_3   0.652944 0.693268 0.579839 -0.576585
O23   O     O_R   0.560460 0.939530 0.423830 -0.578195
O24   O     O_3   0.353996 0.285859 0.427373 -0.596803
O25   O     O_3   0.330436 0.721649 0.378634 -0.558483
O26   O     O_3   0.650998 0.280299 0.612280 -0.604150
O27   O     O_3   0.152963 0.193326 0.580310 -0.576641
O28   O     O_3   0.854164 0.785972 0.427727 -0.596950
O29   O     O_3   0.830531 0.221360 0.378732 -0.558500
O30   O     O_3   0.150968 0.780260 0.612467 -0.604202
O31   O     O_3   0.730927 0.769693 0.318368 -0.603529
O32   O     O_3   0.262090 0.225165 0.685037 -0.582847
O33   O     O_3   0.285606 0.759751 0.678017 -0.612535
O34   O     O_R   0.439540 0.060470 0.576170 -0.590705
O35   O     O_3   0.709020 0.246517 0.319518 -0.561201
O36   O     O_3   0.230594 0.269406 0.318421 -0.603372
O37   O     O_3   0.761939 0.725007 0.684944 -0.582755
O38   O     O_3   0.785618 0.259739 0.678007 -0.612308
O39   O     O_3   0.208854 0.746695 0.319580 -0.561142
O40   O     O_3   0.437866 0.095057 0.074037 -0.595499
O41   O     O_3   0.559505 0.905633 0.931885 -0.599430
O42   O     O_3   0.554140 0.109759 0.964910 -0.622421
O43   O     O_3   0.444943 0.897383 0.046578 -0.602919
O44   O     O_3   0.938022 0.595142 0.074030 -0.595512
O45   O     O_R   0.939540 0.439530 0.576170 -0.575717
O46   O     O_3   0.059405 0.405540 0.931905 -0.599423
O47   O     O_3   0.054310 0.609674 0.964927 -0.622386
O48   O     O_3   0.944810 0.397459 0.046615 -0.603035
O49   O     O_R   0.060460 0.560470 0.423830 -0.573238
O50   O     O_R   0.060460 0.439530 0.423830 -0.578141
O51   O     O_R   0.939540 0.560470 0.576170 -0.590632
O52   O     O_R   0.439530 0.939530 0.423800 -0.565901

loop_
_geom_bond_atom_site_label_1
_geom_bond_atom_site_label_2
_ccdc_geom_bond_type
C100  C153  S    
C138  O37   S    
C19   H241  S    
C120  C146  S    
C60   H87   S    
C175  H178  S    
C55   H77   S    
C26   H8    S    
C168  H90   S    
C171  H168  S    
Cu2   N1    S    
C180  H192  S    
C160  H1    S    
C154  C158  S    
C34   H27   S    
C5    C6    S    
C6    H212  S    
C73   C74   S    
C48   H58   S    
C106  O46   S    
C111  C142  S    
C166  H24   S    
C134  C143  S    
C75   H122  S    
C122  O19   S    
C46   C148  S    
C41   H43   S    
C180  O16   S    
C121  C147  S    
Cu1   O1    S    
C122  C148  S    
C178  H185  S    
C3    C184  S    
C102  C151  S    
C89   O47   S    
C8    H217  S    
C22   H250  S    
C162  H209  S    
C21   C22   S    
C4    H207  S    
C5    H210  S    
C171  H157  S    
C27   H10   S    
C134  O32   S    
C104  C106  S    
C92   H161  S    
C123  O20   S    
Cu4   N3    S    
C3    H203  S    
C51   C52   S    
C137  C146  S    
C104  O48   S    
C72   H115  S    
C16   H234  S    
C182  H197  S    
C167  O11   S    
C15   H233  S    
C113  O28   S    
C12   H226  S    
C181  C182  S    
C155  C159  S    
C139  O36   S    
C43   C44   S    
C50   O33   S    
C31   H19   S    
C37   C38   S    
C110  C123  S    
C105  C158  S    
C111  O26   S    
C37   O29   S    
C52   H70   S    
C165  H2    S    
C169  H124  S    
C121  C135  S    
C101  O40   S    
C49   H62   S    
C168  C169  S    
C99   C101  S    
C10   O20   S    
C17   H237  S    
C88   H153  S    
C114  C150  S    
C26   H6    S    
C137  O33   S    
C50   H64   S    
C60   O37   S    
C164  C165  S    
C98   N4    T    
C29   H14   S    
C111  C124  S    
C182  H196  S    
C85   H148  S    
C112  C134  S    
C4    C5    S    
C25   H4    S    
C44   H50   S    
C36   H29   S    
C102  O41   S    
C177  O15   S    
C115  O30   S    
C109  O24   S    
C58   H82   S    
C83   H141  S    
C43   H48   S    
C107  C138  S    
C89   H158  S    
C37   H33   S    
C32   H21   S    
C151  O10   S    
Cu2   O12   S    
C76   H127  S    
C181  H193  S    
C89   H156  S    
C84   H143  S    
C177  H183  S    
C33   O28   S    
Cu1   O3    S    
C179  H189  S    
C71   H111  S    
C49   H60   S    
C13   C127  T    
C86   H150  S    
C15   H232  S    
Cu3   Cu4   S    
C110  O25   S    
C20   C21   S    
C176  H182  S    
C113  C135  S    
C6    H213  S    
C114  C136  S    
C69   H106  S    
C20   H246  S    
C114  O29   S    
C37   H32   S    
C108  C126  S    
C51   H66   S    
C87   H151  S    
C119  O34   A    
C14   H230  S    
C2    C144  S    
C71   H114  S    
C13   C145  S    
C108  O23   A    
C178  C179  S    
C7    C8    S    
C53   C54   S    
C12   H228  S    
C11   H225  S    
C60   H86   S    
C11   H224  S    
Cu2   O52   S    
C68   C133  T    
C52   H67   S    
C93   H164  S    
Cu1   O34   S    
Cu3   O6    S    
C38   C39   S    
C170  C171  S    
C106  C159  S    
C169  H113  S    
C122  C134  S    
C39   H38   S    
C141  O49   A    
C43   H49   S    
C115  C137  S    
C172  H173  S    
C57   C149  S    
Cu3   O51   S    
C82   H140  S    
C120  C140  S    
C88   H155  S    
C18   H240  S    
C89   C91   S    
C56   H78   S    
C14   O21   S    
C75   H123  S    
C66   C67   S    
Cu3   N4    S    
C53   H72   S    
C80   H133  S    
C10   H222  S    
Cu1   N2    S    
C94   H167  S    
C16   H236  S    
C125  C174  T    
C36   H31   S    
C73   O41   S    
C141  O6    A    
C173  C175  S    
C81   H137  S    
C43   O31   S    
C139  C148  S    
C28   H11   S    
Cu4   O50   S    
C4    H206  S    
C55   H76   S    
C112  C148  S    
C117  C144  S    
C152  O50   A    
Cu4   O8    S    
C91   C92   S    
C32   H23   S    
C25   C26   S    
C117  O15   S    
C30   H17   S    
C78   H131  S    
C65   H99   S    
C40   H40   S    
C169  H101  S    
C42   H47   S    
C64   H96   S    
C103  C154  S    
C83   C84   S    
C115  C149  S    
C17   C18   S    
C69   H108  S    
C103  C105  S    
C86   O46   S    
C75   H125  S    
C161  H176  S    
C113  C117  S    
C105  C155  S    
C70   O40   S    
C66   H103  S    
C99   C157  S    
C91   H159  S    
C153  O9    S    
C62   H91   S    
C73   H119  S    
C112  C116  S    
C74   H120  S    
C162  H198  S    
C183  H200  S    
C47   O32   S    
C132  C141  S    
C19   H244  S    
C40   C41   S    
C170  O13   S    
C54   H73   S    
C61   H89   S    
C118  C145  S    
C104  C158  S    
C19   H243  S    
C123  C137  S    
C95   H170  S    
C90   C157  S    
C184  H201  S    
C85   H145  S    
C71   C72   S    
C74   H121  S    
C34   H28   S    
C176  H180  S    
C61   H88   S    
C56   C58   S    
C59   H84   S    
C82   H138  S    
C63   O38   S    
C34   C36   S    
C92   H163  S    
C104  C155  S    
C61   C62   S    
C56   H80   S    
C68   C150  S    
C10   C11   S    
C63   C64   S    
C76   H126  S    
C41   H42   S    
C17   O22   S    
C56   O36   S    
C14   C15   S    
C40   H41   S    
C178  H186  S    
C45   H54   S    
C63   H94   S    
C42   H44   S    
C64   H97   S    
C166  H46   S    
C87   C88   S    
C22   H251  S    
C172  H174  S    
C41   C42   S    
C57   C132  T    
C117  C138  S    
C27   H9    S    
C1    C128  S    
C135  O31   S    
C92   H162  S    
C161  C162  S    
C77   C78   S    
C93   C94   S    
C53   H71   S    
C28   C29   S    
C72   H116  S    
C76   O42   S    
C30   C31   S    
C42   H45   S    
C80   O43   S    
C99   O42   S    
C163  O51   A    
C129  C163  S    
C5    H208  S    
C18   C19   S    
C38   H36   S    
C165  H13   S    
C9    H219  S    
C79   N1    T    
C152  O7    A    
C40   O30   S    
C54   C55   S    
C118  O16   S    
C106  C154  S    
C116  O14   S    
C62   H93   S    
C4    O18   S    
C70   C71   S    
C53   O35   S    
C130  O45   A    
C39   H39   S    
C116  C139  S    
C49   H61   S    
C100  C156  S    
C172  H172  S    
C23   H252  S    
C131  C152  S    
C136  O35   S    
C88   H154  S    
C163  O8    A    
C26   H7    S    
C21   H248  S    
Cu2   O4    S    
C180  H191  S    
C124  C136  S    
C84   C85   S    
C85   H147  S    
C36   H30   S    
C167  C168  S    
C86   C87   S    
C101  C156  S    
C58   C59   S    
C67   H104  S    
C65   H98   S    
C32   H22   S    
C130  O5    A    
C77   H129  S    
C84   H144  S    
C50   C51   S    
Cu1   O2    S    
C109  C143  S    
Cu3   O45   S    
C151  C156  S    
Cu3   O7    S    
C72   H117  S    
C119  C125  S    
C48   C49   S    
C22   H249  S    
C65   H100  S    
C175  H179  S    
C130  C133  S    
C83   O44   S    
C107  C121  S    
C51   H65   S    
C168  H79   S    
C25   H5    S    
C180  C181  S    
C3    H204  S    
C112  O27   S    
C77   H128  S    
C124  C150  S    
C33   H25   S    
C167  H68   S    
C30   O27   S    
C66   O39   S    
C27   O26   S    
C33   H26   S    
C86   H149  S    
C108  O3    A    
C7    H214  S    
C64   C65   S    
C38   H34   S    
C6    H211  S    
C78   H132  S    
C9    H221  S    
C31   H20   S    
C24   C146  S    
Cu2   O23   S    
C47   H55   S    
C97   O12   A    
Cu1   Cu2   S    
C47   H56   S    
C121  O18   S    
C52   H69   S    
C95   H171  S    
C93   O48   S    
C153  C157  S    
C94   C95   S    
C39   H37   S    
C119  O4    A    
C177  C178  S    
C17   H238  S    
C60   C61   S    
C90   N2    T    
C143  C174  S    
C97   O2    A    
C107  C144  S    
C50   H63   S    
C164  H231  S    
C96   C158  S    
C171  C172  S    
C123  C149  S    
C165  C166  S    
C29   H15   S    
C80   H134  S    
C182  H195  S    
C142  C150  S    
C97   C127  S    
C177  H184  S    
C23   H3    S    
C81   C82   S    
C63   H95   S    
C81   H136  S    
C58   H81   S    
C28   H12   S    
C83   H142  S    
C55   H75   S    
Cu4   O5    S    
C48   H59   S    
C111  C145  S    
C183  O17   S    
C109  C122  S    
C181  H194  S    
C15   C16   S    
C30   H18   S    
C93   H165  S    
C113  C147  S    
C154  O13   S    
C155  O11   S    
C23   O25   S    
C179  H190  S    
C162  H220  S    
C103  O47   S    
C79   C156  S    
C70   H109  S    
C100  O43   S    
C175  C176  S    
C8    C9    S    
C140  O39   S    
C10   H223  S    
C69   H107  S    
C170  H146  S    
C20   H245  S    
C87   H152  S    
C35   C129  T    
C136  C145  S    
C14   H229  S    
C1    O52   A    
C170  H135  S    
C62   H92   S    
C73   H118  S    
C102  C157  S    
C183  H199  S    
C20   O24   S    
C12   H227  S    
C173  H177  S    
C74   C75   S    
C54   H74   S    
C173  H175  S    
C21   H247  S    
C76   C77   S    
C46   C131  T    
C176  H181  S    
C167  H57   S    
C99   C151  S    
C95   H169  S    
C67   C69   S    
C1    O1    A    
C184  H202  S    
C183  C184  S    
C116  C143  S    
C47   C48   S    
C101  C153  S    
C138  C147  S    
C67   H105  S    
C100  C102  S    
C33   C34   S    
C70   H110  S    
C59   H83   S    
C82   H139  S    
C107  O22   S    
C35   C147  S    
C18   H239  S    
C160  O9    S    
C114  C118  S    
C120  O17   S    
C2    C126  T    
C135  C144  S    
C94   H166  S    
C16   H235  S    
C44   H51   S    
C45   H53   S    
C91   H160  S    
C24   C128  T    
Cu4   O49   S    
C31   C32   S    
C44   C45   S    
C80   C81   S    
C118  C142  S    
C166  H35   S    
C11   C12   S    
C164  H242  S    
C3    H205  S    
C78   H130  S    
C109  C139  S    
C160  C161  S    
C110  C140  S    
C179  H188  S    
C160  H112  S    
C45   H52   S    
C110  C146  S    
C96   N3    T    
C103  C159  S    
C8    H216  S    
C140  C149  S    
C164  O10   S    
C161  H187  S    
C7    H215  S    
C23   C25   S    
C9    H218  S    
C105  O44   S    
C98   C159  S    
C66   H102  S    
C7    O19   S    
C115  C120  S    
C124  O21   S    
C27   C28   S    
C29   H16   S    
C59   H85   S    
C142  O38   S    
C173  O14   S    
