data_str_m3_o40_o41_f0_fof.sym.96
_audit_creation_date              2012-12-10T16:38:14-0500
_audit_creation_method            fapswitch 2.2
_symmetry_space_group_name_H-M    P1
_symmetry_Int_Tables_number       1
_space_group_crystal_system       monoclinic
_cell_length_a                    28.120505
_cell_length_b                    18.495173
_cell_length_c                    16.961502
_cell_angle_alpha                 90.0
_cell_angle_beta                  61.575761
_cell_angle_gamma                 90.0
_cell_volume                      7758.10462499

loop_
_atom_site_label
_atom_site_type_symbol
_atom_type_description
_atom_site_fract_x
_atom_site_fract_y
_atom_site_fract_z
_atom_type_partial_charge
C1    C     C_R   0.702180 0.268190 0.676514 0.929049
C2    C     C_R   0.299365 0.735017 0.322978 0.934562
C3    C     C_R   0.297774 0.268250 0.323449 0.917657
C4    C     C_R   0.700667 0.734961 0.676992 0.916529
C5    C     C_R   0.202226 0.768250 0.676551 0.917656
C6    C     C_R   0.799333 0.234961 0.323008 0.916529
C7    C     C_R   0.797820 0.768190 0.323486 0.929049
C8    C     C_R   0.200635 0.235017 0.677022 0.934562
C9    C     C_R   0.921181 0.501023 0.430598 0.068885
C10   C     C_R   0.099585 0.501301 0.495906 0.064056
C11   C     C_R   0.400415 0.001301 0.504093 0.064056
C12   C     C_R   0.578819 0.001023 0.569402 0.068885
C13   C     C_R   0.118151 0.376975 0.444144 -0.253895
C14   C     C_R   0.924080 0.632017 0.426727 -0.244876
C15   C     C_R   0.929145 0.370933 0.410148 -0.262857
C16   C     C_R   0.081758 0.627870 0.537946 -0.240603
C17   C     C_R   0.570855 0.870933 0.589852 -0.262858
C18   C     C_R   0.418242 0.127870 0.462053 -0.240603
C19   C     C_R   0.381849 0.876975 0.555856 -0.253895
C20   C     C_R   0.575919 0.132017 0.573273 -0.244876
C21   C     C_R   0.709154 0.247165 0.967078 -0.003186
C22   C     C_R   0.265767 0.715930 0.063459 -0.004190
C23   C     C_R   0.291663 0.245611 0.031910 -0.005265
C24   C     C_R   0.733294 0.717481 0.937832 -0.004334
C25   C     C_R   0.208337 0.745611 0.968090 -0.005265
C26   C     C_R   0.766706 0.217480 0.062168 -0.004334
C27   C     C_R   0.790845 0.747165 0.032922 -0.003186
C28   C     C_R   0.234233 0.215930 0.936541 -0.004190
C29   C     C_R   0.754637 0.200931 0.929012 0.017848
C30   C     C_R   0.222716 0.766700 0.099142 0.004153
C31   C     C_R   0.246569 0.198653 0.069401 0.021513
C32   C     C_R   0.776490 0.768045 0.901819 0.005441
C33   C     C_R   0.253431 0.698653 0.930598 0.021513
C34   C     C_R   0.723510 0.268045 0.098180 0.005441
C35   C     C_R   0.745363 0.700931 0.070988 0.017848
C36   C     C_R   0.277284 0.266700 0.900858 0.004153
C37   C     C_R   0.777034 0.177873 0.984448 0.060636
C38   C     C_R   0.188849 0.771233 0.057043 0.052149
C39   C     C_R   0.224371 0.175590 0.013536 0.063271
C40   C     C_R   0.810345 0.772628 0.943888 0.053341
C41   C     C_R   0.275629 0.675590 0.986464 0.063271
C42   C     C_R   0.689655 0.272628 0.056112 0.053341
C43   C     C_R   0.722966 0.677873 0.015552 0.060636
C44   C     C_R   0.311151 0.271233 0.942956 0.052149
C45   C     C_R   0.635393 0.310733 0.956989 0.003859
C46   C     C_R   0.337243 0.647132 0.075348 0.003317
C47   C     C_R   0.364891 0.310202 0.042667 0.003276
C48   C     C_R   0.662300 0.647897 0.925544 0.004127
C49   C     C_R   0.135109 0.810202 0.957332 0.003276
C50   C     C_R   0.837700 0.147897 0.074455 0.004127
C51   C     C_R   0.864606 0.810733 0.043011 0.003859
C52   C     C_R   0.162757 0.147132 0.924651 0.003317
C53   C     C_R   0.616086 0.344805 0.901701 -0.247642
C54   C     C_R   0.374925 0.642130 0.109532 -0.252190
C55   C     C_R   0.383835 0.344768 0.098209 -0.248881
C56   C     C_R   0.625040 0.642216 0.890662 -0.254398
C57   C     C_R   0.116165 0.844768 0.901791 -0.248880
C58   C     C_R   0.874960 0.142216 0.109338 -0.254398
C59   C     C_R   0.883913 0.844805 0.098299 -0.247643
C60   C     C_R   0.125075 0.142130 0.890468 -0.252189
C61   C     C_R   0.643225 0.335313 0.809650 0.361403
C62   C     C_R   0.368558 0.685322 0.181168 0.372287
C63   C     C_R   0.356258 0.335727 0.190312 0.364168
C64   C     C_R   0.631830 0.684787 0.818436 0.351818
C65   C     C_R   0.143742 0.835727 0.809688 0.364168
C66   C     C_R   0.868170 0.184787 0.181564 0.351818
C67   C     C_R   0.856775 0.835313 0.190350 0.361403
C68   C     C_R   0.131441 0.185322 0.818832 0.372288
C69   C     C_R   0.681082 0.280404 0.773026 -0.235277
C70   C     C_R   0.321595 0.725610 0.225557 -0.254111
C71   C     C_R   0.318782 0.280393 0.226849 -0.232288
C72   C     C_R   0.678523 0.725433 0.774304 -0.243159
C73   C     C_R   0.181218 0.780393 0.773151 -0.232288
C74   C     C_R   0.821477 0.225433 0.225696 -0.243159
C75   C     C_R   0.818918 0.780404 0.226974 -0.235277
C76   C     C_R   0.178405 0.225610 0.774443 -0.254111
C77   C     C_R   0.702801 0.247054 0.826502 -0.016668
C78   C     C_R   0.291053 0.743723 0.180363 -0.020816
C79   C     C_R   0.297411 0.246477 0.173104 -0.016279
C80   C     C_R   0.708776 0.744017 0.819792 -0.020917
C81   C     C_R   0.202589 0.746477 0.826896 -0.016279
C82   C     C_R   0.791224 0.244017 0.180208 -0.020917
C83   C     C_R   0.797199 0.747054 0.173498 -0.016668
C84   C     C_R   0.208947 0.243723 0.819637 -0.020816
C85   C     C_R   0.691436 0.129471 0.535325 0.899002
C86   C     C_R   0.303774 0.872001 0.481922 0.888908
C87   C     C_R   0.308247 0.128960 0.467896 0.897180
C88   C     C_R   0.691036 0.870503 0.536363 0.875845
C89   C     C_R   0.191753 0.628960 0.532103 0.897180
C90   C     C_R   0.808964 0.370503 0.463636 0.875845
C91   C     C_R   0.808564 0.629471 0.464675 0.899002
C92   C     C_R   0.196226 0.372001 0.518078 0.888909
C93   C     C_R   0.682865 0.268803 0.916431 0.067739
C94   C     C_R   0.298420 0.703067 0.105747 0.074948
C95   C     C_R   0.317573 0.267883 0.082983 0.068121
C96   C     C_R   0.701058 0.703933 0.895015 0.070186
C97   C     C_R   0.182427 0.767883 0.917017 0.068121
C98   C     C_R   0.798942 0.203933 0.104985 0.070186
C99   C     C_R   0.817134 0.768803 0.083569 0.067739
C100  C     C_R   0.201580 0.203067 0.894253 0.074948
C101  C     C_R   0.609146 0.315781 0.051428 -0.168582
C102  C     C_R   0.335013 0.596715 0.014975 -0.177396
C103  C     C_R   0.391307 0.315222 0.948217 -0.168207
C104  C     C_R   0.664054 0.598239 0.987008 -0.170590
C105  C     C_R   0.108693 0.815222 0.051783 -0.168206
C106  C     C_R   0.835946 0.098239 0.012992 -0.170590
C107  C     C_R   0.890854 0.815781 0.948572 -0.168582
C108  C     C_R   0.164987 0.096715 0.985025 -0.177395
C109  C     C_R   0.635917 0.297098 0.099843 -0.199257
C110  C     C_R   0.304297 0.610806 0.972217 -0.212318
C111  C     C_R   0.364772 0.296188 0.899519 -0.195969
C112  C     C_R   0.694151 0.613198 0.030534 -0.211074
C113  C     C_R   0.135228 0.796188 0.100481 -0.195969
C114  C     C_R   0.805849 0.113198 0.969466 -0.211073
C115  C     C_R   0.864083 0.797098 0.900157 -0.199256
C116  C     C_R   0.195703 0.110806 0.027782 -0.212319
C117  C     C_R   0.745308 0.195920 0.793323 -0.212164
C118  C     C_R   0.253777 0.801038 0.207237 -0.197043
C119  C     C_R   0.255110 0.195031 0.206082 -0.225232
C120  C     C_R   0.745918 0.801473 0.792886 -0.198185
C121  C     C_R   0.244890 0.695031 0.793918 -0.225232
C122  C     C_R   0.754082 0.301473 0.207114 -0.198185
C123  C     C_R   0.754692 0.695920 0.206676 -0.212164
C124  C     C_R   0.246223 0.301038 0.792763 -0.197043
C125  C     C_R   0.775580 0.180606 0.837355 0.141735
C126  C     C_R   0.218675 0.812529 0.170552 0.166570
C127  C     C_R   0.225551 0.178248 0.161106 0.145843
C128  C     C_R   0.780812 0.813403 0.829849 0.166764
C129  C     C_R   0.274449 0.678248 0.838894 0.145843
C130  C     C_R   0.719188 0.313403 0.170151 0.166764
C131  C     C_R   0.724420 0.680606 0.162644 0.141736
C132  C     C_R   0.281325 0.312529 0.829448 0.166570
C133  C     C_R   0.078604 0.093605 0.929666 0.936539
C134  C     C_R   0.926870 0.898662 0.064421 0.926312
C135  C     C_R   0.921631 0.094022 0.070067 0.944228
C136  C     C_R   0.073198 0.898698 0.935539 0.926131
C137  C     C_R   0.578369 0.594022 0.929933 0.944228
C138  C     C_R   0.426802 0.398698 0.064461 0.926131
C139  C     C_R   0.421396 0.593606 0.070334 0.936539
C140  C     C_R   0.573130 0.398662 0.935579 0.926312
C141  C     C_R   0.534964 0.132543 0.549520 0.110330
C142  C     C_R   0.428032 0.874800 0.566521 0.108866
C143  C     C_R   0.456383 0.130285 0.492481 0.108202
C144  C     C_R   0.522192 0.871874 0.585620 0.120775
C145  C     C_R   0.043617 0.630285 0.507519 0.108202
C146  C     C_R   0.977808 0.371874 0.414380 0.120775
C147  C     C_R   0.965035 0.632543 0.450480 0.110330
C148  C     C_R   0.071968 0.374800 0.433479 0.108866
C149  C     C_R   0.517954 0.197373 0.527820 -0.208638
C150  C     C_R   0.444468 0.810452 0.590404 -0.225768
C151  C     C_R   0.480509 0.195860 0.495735 -0.212679
C152  C     C_R   0.491796 0.808648 0.598230 -0.203295
C153  C     C_R   0.019491 0.695860 0.504265 -0.212680
C154  C     C_R   0.008204 0.308648 0.401770 -0.203295
C155  C     C_R   0.982046 0.697373 0.472180 -0.208638
C156  C     C_R   0.055531 0.310452 0.409595 -0.225768
C157  C     C_R   0.470368 0.066307 0.520952 0.029329
C158  C     C_R   0.504175 0.936958 0.566001 0.029358
C159  C     C_R   0.512119 0.066821 0.544045 0.030181
C160  C     C_R   0.458536 0.937743 0.552389 0.032893
C161  C     C_R   0.987881 0.566821 0.455955 0.030181
C162  C     C_R   0.041463 0.437743 0.447611 0.032893
C163  C     C_R   0.029632 0.566307 0.479048 0.029329
C164  C     C_R   0.995825 0.436958 0.433999 0.029358
C165  C     C_R   0.968787 0.501606 0.438706 -0.055401
C166  C     C_R   0.056741 0.501711 0.474691 -0.054083
C167  C     C_R   0.443259 0.001711 0.525309 -0.054083
C168  C     C_R   0.531213 0.001606 0.561294 -0.055401
C169  C     C_R   0.897711 0.434569 0.426177 0.054103
C170  C     C_R   0.113508 0.565180 0.526055 0.061332
C171  C     C_R   0.129462 0.437520 0.484424 0.046553
C172  C     C_R   0.896070 0.567041 0.431059 0.050512
C173  C     C_R   0.370538 0.937520 0.515576 0.046553
C174  C     C_R   0.603930 0.067041 0.568941 0.050512
C175  C     C_R   0.602288 0.934569 0.573823 0.054103
C176  C     C_R   0.386492 0.065180 0.473945 0.061332
C177  C     C_R   0.843746 0.434980 0.438719 -0.116069
C178  C     C_R   0.160081 0.564296 0.539470 -0.109021
C179  C     C_R   0.169173 0.437046 0.514246 -0.105543
C180  C     C_R   0.843137 0.565499 0.440136 -0.110698
C181  C     C_R   0.330827 0.937046 0.485754 -0.105543
C182  C     C_R   0.656863 0.065499 0.559864 -0.110698
C183  C     C_R   0.656254 0.934980 0.561281 -0.116069
C184  C     C_R   0.339919 0.064296 0.460530 -0.109021
C185  C     C_R   0.818998 0.500142 0.440440 -0.315142
C186  C     C_R   0.183341 0.499722 0.541760 -0.328809
C187  C     C_R   0.316659 0.999722 0.458240 -0.328809
C188  C     C_R   0.681002 0.000142 0.559560 -0.315142
H1    H     H_    0.078135 0.260954 0.400548 0.148962
H2    H     H_    0.964368 0.748582 0.468825 0.135759
H3    H     H_    0.995183 0.257771 0.386885 0.135467
H4    H     H_    0.030518 0.746008 0.524421 0.135414
H5    H     H_    0.504817 0.757771 0.613115 0.135467
H6    H     H_    0.469482 0.246008 0.475579 0.135413
H7    H     H_    0.421865 0.760954 0.599452 0.148962
H8    H     H_    0.535632 0.248582 0.531175 0.135759
H9    H     H_    0.778257 0.500023 0.449242 0.188739
H10   H     H_    0.215285 0.499097 0.560339 0.183342
H11   H     H_    0.284715 0.999097 0.439660 0.183342
H12   H     H_    0.721743 0.000023 0.550758 0.188739
H13   H     H_    0.144687 0.330966 0.418698 0.185163
H14   H     H_    0.914370 0.683159 0.407431 0.180722
H15   H     H_    0.917173 0.320626 0.392447 0.177969
H16   H     H_    0.085102 0.675330 0.571995 0.176911
H17   H     H_    0.582826 0.820626 0.607553 0.177969
H18   H     H_    0.414898 0.175330 0.428005 0.176911
H19   H     H_    0.355313 0.830966 0.581302 0.185163
H20   H     H_    0.585630 0.183159 0.592569 0.180722
H21   H     H_    0.567592 0.332915 0.089648 0.172186
H22   H     H_    0.355408 0.545149 0.001678 0.177081
H23   H     H_    0.432776 0.332749 0.910208 0.172331
H24   H     H_    0.643939 0.546471 0.000391 0.176774
H25   H     H_    0.067224 0.832749 0.089792 0.172331
H26   H     H_    0.856061 0.046471 0.999609 0.176774
H27   H     H_    0.932408 0.832915 0.910352 0.172186
H28   H     H_    0.144592 0.045149 0.998322 0.177081
H29   H     H_    0.612942 0.298155 0.171679 0.143168
H30   H     H_    0.300829 0.569338 0.931394 0.150223
H31   H     H_    0.387829 0.297439 0.827690 0.143887
H32   H     H_    0.697692 0.571984 0.071627 0.147298
H33   H     H_    0.112171 0.797439 0.172310 0.143887
H34   H     H_    0.802308 0.071984 0.928373 0.147298
H35   H     H_    0.887058 0.798155 0.828321 0.143168
H36   H     H_    0.199171 0.069338 0.068606 0.150223
H37   H     H_    0.757636 0.167414 0.731580 0.177225
H38   H     H_    0.253402 0.839863 0.255161 0.163206
H39   H     H_    0.242546 0.167141 0.268280 0.179241
H40   H     H_    0.746374 0.840039 0.744654 0.162140
H41   H     H_    0.257454 0.667141 0.731720 0.179241
H42   H     H_    0.753626 0.340039 0.255346 0.162140
H43   H     H_    0.742364 0.667414 0.268420 0.177225
H44   H     H_    0.246597 0.339863 0.744839 0.163206
O1    O     O_R   0.746490 0.236330 0.638080 -0.655876
O2    O     O_R   0.253510 0.763670 0.361920 -0.639968
O3    O     O_R   0.253510 0.236330 0.361920 -0.671454
O4    O     O_R   0.746490 0.763670 0.638080 -0.642254
O5    O     O_R   0.246490 0.736330 0.638080 -0.671454
O6    O     O_R   0.753510 0.263670 0.361920 -0.642254
O7    O     O_R   0.753510 0.736330 0.361920 -0.655876
O8    O     O_R   0.246490 0.263670 0.638080 -0.639968
O9    O     O_R   0.674170 0.186160 0.516270 -0.638289
O10   O     O_R   0.325830 0.813840 0.483730 -0.645467
O11   O     O_R   0.325830 0.186160 0.483730 -0.639475
O12   O     O_R   0.674170 0.813840 0.516270 -0.632058
O13   O     O_R   0.174170 0.686160 0.516270 -0.639475
O14   O     O_R   0.825830 0.313840 0.483730 -0.632058
O15   O     O_R   0.825830 0.686160 0.483730 -0.638289
O16   O     O_R   0.174170 0.313840 0.516270 -0.645467
O17   O     O_R   0.739960 0.127620 0.525000 -0.637240
O18   O     O_R   0.260040 0.872380 0.475000 -0.650536
O19   O     O_R   0.260040 0.127620 0.475000 -0.631326
O20   O     O_R   0.739960 0.872380 0.525000 -0.650351
O21   O     O_R   0.239960 0.627620 0.525000 -0.631326
O22   O     O_R   0.760040 0.372380 0.475000 -0.650351
O23   O     O_R   0.760040 0.627620 0.475000 -0.637240
O24   O     O_R   0.239960 0.372380 0.525000 -0.650536
O25   O     O_R   0.680700 0.294870 0.629350 -0.570725
O26   O     O_R   0.319300 0.705130 0.370650 -0.574352
O27   O     O_R   0.319300 0.294870 0.370650 -0.570879
O28   O     O_R   0.680700 0.705130 0.629350 -0.581775
O29   O     O_R   0.180700 0.794870 0.629350 -0.570879
O30   O     O_R   0.819300 0.205130 0.370650 -0.581775
O31   O     O_R   0.819300 0.794870 0.370650 -0.570725
O32   O     O_R   0.180700 0.205130 0.629350 -0.574352
O33   O     O_R   0.062020 0.072840 0.007170 -0.640273
O34   O     O_R   0.937980 0.927160 0.992830 -0.655825
O35   O     O_R   0.937980 0.072840 0.992830 -0.646375
O36   O     O_R   0.062020 0.927160 0.007170 -0.656422
O37   O     O_R   0.562020 0.572840 0.007170 -0.646375
O38   O     O_R   0.437980 0.427160 0.992830 -0.656422
O39   O     O_R   0.437980 0.572840 0.992830 -0.640272
O40   O     O_R   0.562020 0.427160 0.007170 -0.655825
O41   O     O_R   0.947860 0.073950 0.109290 -0.585197
O42   O     O_R   0.052140 0.926050 0.890710 -0.576223
O43   O     O_R   0.052140 0.073950 0.890710 -0.588819
O44   O     O_R   0.947860 0.926050 0.109290 -0.576717
O45   O     O_R   0.447860 0.573950 0.109290 -0.588819
O46   O     O_R   0.552140 0.426050 0.890710 -0.576717
O47   O     O_R   0.552140 0.573950 0.890710 -0.585198
O48   O     O_R   0.447860 0.426050 0.109290 -0.576223
Zn1   Zn    Zn3+2 0.792340 0.208750 0.507670 0.929378
Zn2   Zn    Zn3+2 0.207660 0.791250 0.492330 0.925291
Zn3   Zn    Zn3+2 0.207660 0.208750 0.492330 0.920157
Zn4   Zn    Zn3+2 0.792340 0.791250 0.507670 0.922101
Zn5   Zn    Zn3+2 0.292340 0.708750 0.507670 0.920157
Zn6   Zn    Zn3+2 0.707660 0.291250 0.492330 0.922101
Zn7   Zn    Zn3+2 0.707660 0.708750 0.492330 0.929378
Zn8   Zn    Zn3+2 0.292340 0.291250 0.507670 0.925291
Zn9   Zn    Zn3+2 0.505960 0.500000 0.080520 0.933420
Zn10  Zn    Zn3+2 0.494040 0.500000 0.919480 0.932745
Zn11  Zn    Zn3+2 0.005960 0.000000 0.080520 0.932745
Zn12  Zn    Zn3+2 0.994040 0.000000 0.919480 0.933420
O49   O     O_3   0.632496 0.380869 0.754781 -0.582720
C189  C     C_3   0.668356 0.440630 0.729117 0.133917
H45   H     H_    0.709618 0.424007 0.677634 0.135060
H46   H     H_    0.671134 0.464056 0.787441 0.064977
C190  C     C_3   0.647876 0.500669 0.690740 -0.305553
H47   H     H_    0.606626 0.516854 0.741498 0.257559
H48   H     H_    0.674749 0.548582 0.675140 0.188739
C191  C     C_3   0.645893 0.477396 0.606106 -0.777101
H49   H     H_    0.687048 0.464934 0.552158 0.257208
H50   H     H_    0.629286 0.522181 0.582950 0.213528
H51   H     H_    0.619592 0.429210 0.619402 0.272644
O50   O     O_3   0.404700 0.680696 0.215083 -0.619366
C192  C     C_3   0.436518 0.744365 0.194066 0.102986
H52   H     H_    0.443131 0.756872 0.252188 0.169469
H53   H     H_    0.416745 0.793080 0.183478 0.107838
C193  C     C_3   0.491586 0.731442 0.111628 -0.328206
H54   H     H_    0.511326 0.683918 0.123928 0.254616
H55   H     H_    0.485775 0.719963 0.052489 0.202119
C194  C     C_3   0.528773 0.796752 0.090859 -0.993760
H56   H     H_    0.510475 0.844844 0.076548 0.266906
H57   H     H_    0.568184 0.785064 0.031010 0.267504
H58   H     H_    0.536129 0.808623 0.148356 0.272606
O51   O     O_3   0.365772 0.382596 0.245399 -0.582925
C195  C     C_3   0.329329 0.441597 0.269147 0.124068
H59   H     H_    0.288028 0.424590 0.320093 0.126009
H60   H     H_    0.326995 0.463670 0.209824 0.067368
C196  C     C_3   0.348643 0.503196 0.307219 -0.301986
H61   H     H_    0.390530 0.518182 0.257971 0.259831
H62   H     H_    0.322346 0.551213 0.318766 0.187562
C197  C     C_3   0.347824 0.482877 0.394946 -0.767767
H63   H     H_    0.305806 0.473199 0.447587 0.255775
H64   H     H_    0.364636 0.528126 0.417042 0.218204
H65   H     H_    0.372572 0.433778 0.386304 0.271815
O52   O     O_3   0.594530 0.682427 0.786959 -0.615345
C198  C     C_3   0.562830 0.745934 0.815193 0.104738
H66   H     H_    0.587148 0.793136 0.775793 0.124955
H67   H     H_    0.547666 0.756417 0.888116 0.127440
C199  C     C_3   0.513952 0.737242 0.799626 -0.321699
H68   H     H_    0.528091 0.725705 0.727652 0.211678
H69   H     H_    0.489014 0.690812 0.839623 0.237205
C200  C     C_3   0.479233 0.805493 0.826681 -0.974056
H70   H     H_    0.462414 0.815551 0.899691 0.265764
H71   H     H_    0.445229 0.798912 0.811520 0.277152
H72   H     H_    0.503584 0.852971 0.788837 0.271624
O53   O     O_3   0.134228 0.882596 0.754601 -0.582925
C201  C     C_3   0.170671 0.941597 0.730853 0.124069
H73   H     H_    0.211972 0.924590 0.679907 0.126009
H74   H     H_    0.173005 0.963670 0.790176 0.067368
C202  C     C_3   0.151357 0.003196 0.692781 -0.301985
H75   H     H_    0.109469 0.018182 0.742028 0.259830
H76   H     H_    0.177654 0.051213 0.681234 0.187561
C203  C     C_3   0.152176 0.982877 0.605054 -0.767767
H77   H     H_    0.194193 0.973199 0.552413 0.255775
H78   H     H_    0.135363 0.028126 0.582958 0.218204
H79   H     H_    0.127428 0.933778 0.613696 0.271815
O54   O     O_3   0.905470 0.182427 0.213041 -0.615345
C204  C     C_3   0.937170 0.245934 0.184807 0.104738
H80   H     H_    0.912852 0.293136 0.224207 0.124955
H81   H     H_    0.952334 0.256417 0.111884 0.127440
C205  C     C_3   0.986047 0.237242 0.200374 -0.321700
H82   H     H_    0.971909 0.225705 0.272349 0.211678
H83   H     H_    0.010986 0.190812 0.160377 0.237205
C206  C     C_3   0.020767 0.305493 0.173319 -0.974056
H84   H     H_    0.037586 0.315551 0.100309 0.265764
H85   H     H_    0.054771 0.298912 0.188480 0.277152
H86   H     H_    0.996416 0.352971 0.211163 0.271624
O55   O     O_3   0.867504 0.880869 0.245219 -0.582720
C207  C     C_3   0.831644 0.940630 0.270883 0.133917
H87   H     H_    0.790382 0.924007 0.322366 0.135060
H88   H     H_    0.828866 0.964056 0.212559 0.064977
C208  C     C_3   0.852124 0.000669 0.309260 -0.305553
H89   H     H_    0.893374 0.016854 0.258501 0.257559
H90   H     H_    0.825250 0.048582 0.324860 0.188739
C209  C     C_3   0.854107 0.977396 0.393894 -0.777101
H91   H     H_    0.812952 0.964934 0.447842 0.257208
H92   H     H_    0.870714 0.022181 0.417050 0.213528
H93   H     H_    0.880408 0.929210 0.380598 0.272644
O56   O     O_3   0.095300 0.180696 0.784917 -0.619367
C210  C     C_3   0.063481 0.244365 0.805935 0.102985
H94   H     H_    0.056869 0.256872 0.747813 0.169469
H95   H     H_    0.083255 0.293081 0.816523 0.107838
C211  C     C_3   0.008413 0.231442 0.888372 -0.328206
H96   H     H_    0.988674 0.183918 0.876073 0.254616
H97   H     H_    0.014224 0.219963 0.947511 0.202120
C212  C     C_3   0.971226 0.296752 0.909142 -0.993761
H98   H     H_    0.989524 0.344844 0.923453 0.266907
H99   H     H_    0.931815 0.285063 0.968990 0.267504
H100  H     H_    0.963871 0.308623 0.851646 0.272607
C213  C     C_3   0.833792 0.155690 0.777377 -0.405388
C214  C     C_3   0.874963 0.210537 0.775812 -0.822627
H101  H     H_    0.866914 0.264744 0.756495 0.260840
H102  H     H_    0.873683 0.214420 0.842016 0.268834
H103  H     H_    0.916349 0.193480 0.725839 0.238373
H104  H     H_    0.842444 0.101435 0.793913 0.189796
H105  H     H_    0.841895 0.150083 0.706764 0.193746
C215  C     C_3   0.181809 0.878159 0.206453 -0.391757
C216  C     C_3   0.193886 0.935666 0.135090 -0.878555
H106  H     H_    0.231819 0.964556 0.120612 0.251429
H107  H     H_    0.198303 0.913160 0.071495 0.277324
H108  H     H_    0.159730 0.974451 0.161303 0.232602
H109  H     H_    0.138746 0.863043 0.240855 0.186055
H110  H     H_    0.186612 0.905083 0.260875 0.186128
C217  C     C_3   0.167937 0.150834 0.220103 -0.404273
C218  C     C_3   0.125448 0.201595 0.218523 -0.859304
H111  H     H_    0.132900 0.257984 0.232342 0.264431
H112  H     H_    0.125645 0.200229 0.153143 0.275921
H113  H     H_    0.084580 0.184647 0.270588 0.236155
H114  H     H_    0.161691 0.095004 0.204599 0.192244
H115  H     H_    0.158977 0.147850 0.291363 0.188690
C219  C     C_3   0.817758 0.878942 0.793448 -0.393577
C220  C     C_3   0.805550 0.937066 0.864122 -0.876957
H116  H     H_    0.766591 0.963983 0.880656 0.253354
H117  H     H_    0.803194 0.915487 0.926738 0.277124
H118  H     H_    0.838677 0.977367 0.835981 0.231288
H119  H     H_    0.860830 0.863889 0.759452 0.185928
H120  H     H_    0.813096 0.905350 0.738611 0.186539
C221  C     C_3   0.332063 0.650834 0.779897 -0.404274
C222  C     C_3   0.374552 0.701595 0.781477 -0.859304
H121  H     H_    0.367100 0.757984 0.767658 0.264431
H122  H     H_    0.374355 0.700229 0.846856 0.275921
H123  H     H_    0.415420 0.684647 0.729412 0.236155
H124  H     H_    0.338309 0.595004 0.795401 0.192244
H125  H     H_    0.341023 0.647850 0.708637 0.188690
C223  C     C_3   0.682242 0.378941 0.206552 -0.393577
C224  C     C_3   0.694450 0.437066 0.135878 -0.876955
H126  H     H_    0.733409 0.463983 0.119344 0.253354
H127  H     H_    0.696806 0.415487 0.073261 0.277123
H128  H     H_    0.661323 0.477367 0.164019 0.231287
H129  H     H_    0.639170 0.363889 0.240548 0.185928
H130  H     H_    0.686904 0.405350 0.261389 0.186539
C225  C     C_3   0.666208 0.655690 0.222623 -0.405390
C226  C     C_3   0.625037 0.710538 0.224188 -0.822627
H131  H     H_    0.633086 0.764745 0.243505 0.260840
H132  H     H_    0.626317 0.714420 0.157984 0.268834
H133  H     H_    0.583651 0.693481 0.274161 0.238373
H134  H     H_    0.657555 0.601435 0.206087 0.189796
H135  H     H_    0.658104 0.650083 0.293236 0.193746
C227  C     C_3   0.318191 0.378159 0.793547 -0.391757
C228  C     C_3   0.306114 0.435666 0.864910 -0.878556
H136  H     H_    0.268181 0.464556 0.879388 0.251429
H137  H     H_    0.301697 0.413160 0.928505 0.277324
H138  H     H_    0.340270 0.474451 0.838697 0.232602
H139  H     H_    0.361254 0.363043 0.759145 0.186055
H140  H     H_    0.313387 0.405083 0.739125 0.186128

loop_
_geom_bond_atom_site_label_1
_geom_bond_atom_site_label_2
_ccdc_geom_bond_type
C197  H64   S    
C154  H3    S    
C85   C182  S    
C190  H48   S    
C9    C169  A    
C34   C42   A    
O53   C201  S    
C181  C187  A    
C130  C223  S    
C200  H70   S    
C6    O6    A    
C27   C99   A    
C170  C178  A    
C175  C183  A    
C220  H117  S    
C42   C109  A    
C218  H112  S    
C24   C96   A    
C149  H8    S    
C197  H65   S    
C215  H110  S    
C52   C108  A    
C30   C38   A    
C212  H100  S    
C3    O3    A    
C1    O1    A    
O52   C198  S    
C8    O32   A    
C147  C155  A    
C193  C194  S    
O11   Zn8   S    
C88   O20   A    
C8    O8    A    
C90   C177  S    
C4    O28   A    
C129  C221  S    
C82   C98   A    
C76   C84   A    
C73   C81   A    
C161  C163  A    
C162  C164  A    
O22   Zn6   S    
C199  H68   S    
C84   C100  A    
C140  O46   A    
C121  C129  A    
C137  O37   A    
C37   C114  A    
C27   C35   A    
C10   C171  A    
C21   C29   A    
O3    Zn3   S    
C81   C121  A    
C195  H59   S    
C23   C31   A    
C221  H125  S    
C24   C32   A    
O10   Zn5   S    
O38   Zn10  S    
O15   Zn4   S    
C91   O23   A    
C206  H84   S    
C146  C154  A    
C86   O10   A    
C205  H82   S    
C113  H33   S    
C124  H44   S    
C199  H69   S    
O17   Zn1   S    
C219  H120  S    
C63   C71   A    
C213  C214  S    
C36   C44   A    
C87   C184  S    
C32   C40   A    
C191  H49   S    
C12   C174  A    
C138  O38   A    
C200  H72   S    
C176  C184  A    
O7    Zn7   S    
O8    Zn8   S    
C138  O48   A    
C139  O45   A    
C15   H15   S    
C133  O33   A    
O48   Zn9   S    
C148  C162  A    
C223  C224  S    
C183  C188  A    
C142  C150  A    
C21   C93   A    
C78   C94   A    
C3    O27   A    
C9    C165  A    
O54   C204  S    
C89   O13   A    
C63   O51   S    
O27   Zn8   S    
C49   C97   A    
C21   C42   A    
C22   C41   A    
C107  H27   S    
C51   C107  A    
C68   O56   S    
O55   C207  S    
O33   Zn11  S    
O32   Zn3   S    
O34   Zn12  S    
O41   Zn11  S    
C185  H9    S    
C221  C222  S    
C16   H16   S    
O42   Zn12  S    
C82   C122  A    
C161  C165  A    
C17   C175  A    
C18   C176  A    
O1    Zn1   S    
C196  H62   S    
C85   O17   A    
C204  H80   S    
C29   C125  A    
C69   C77   A    
C31   C127  A    
C45   C93   A    
C174  C182  A    
C71   C79   A    
O56   C210  S    
C92   O16   A    
C228  H137  S    
C179  C186  A    
C118  H38   S    
C87   O19   A    
C62   C70   A    
C11   C176  A    
C127  C217  S    
C195  C196  S    
C151  H6    S    
C105  C113  A    
C18   C143  A    
C78   C118  A    
O43   Zn12  S    
C149  C151  A    
O40   Zn9   S    
O30   Zn1   S    
O45   Zn9   S    
C188  H12   S    
C66   C74   A    
C205  C206  S    
C48   C96   A    
C8    C76   S    
C49   C57   A    
C124  C132  A    
O14   Zn1   S    
C211  H96   S    
O25   Zn6   S    
C52   C60   A    
C59   C67   A    
C53   C61   A    
C213  H104  S    
C141  C159  A    
C20   C174  A    
C54   C139  S    
C23   C95   A    
C215  C216  S    
C192  H53   S    
C55   C63   A    
C216  H108  S    
C56   C64   A    
C7    O31   A    
C223  H130  S    
C35   C43   A    
C191  H51   S    
C156  H1    S    
C90   O22   A    
C45   C53   A    
C22   C94   A    
C171  C179  A    
C111  H31   S    
C169  C177  A    
C207  H87   S    
C224  H127  S    
C193  H55   S    
C202  H76   S    
C106  H26   S    
C50   C98   A    
C121  H41   S    
C103  H23   S    
C198  H67   S    
O19   Zn3   S    
C145  C163  A    
C101  H21   S    
C146  C164  A    
C14   C147  A    
C52   C100  A    
O31   Zn4   S    
C219  H119  S    
C79   C119  A    
C16   C145  A    
C135  O41   A    
C211  C212  S    
C178  C186  A    
C135  O35   A    
O37   Zn9   S    
O49   C189  S    
C25   C38   A    
C217  H114  S    
C228  H136  S    
C46   C94   A    
C27   C40   A    
C10   C166  A    
C210  C211  S    
C91   C180  S    
C112  H32   S    
C6    O30   A    
C182  C188  A    
C89   C178  S    
C209  H93   S    
C28   C36   A    
C222  H121  S    
C25   C97   A    
C226  H131  S    
C206  H85   S    
C39   C116  A    
C204  C205  S    
C201  H74   S    
C194  H57   S    
C208  C209  S    
C67   C75   A    
C104  H24   S    
C216  H107  S    
C219  C220  S    
C4    O4    A    
C24   C43   A    
C137  O47   A    
C22   C30   A    
C20   C141  A    
C7    O7    A    
C15   C146  A    
C64   O52   S    
C58   C135  S    
C68   C76   A    
C201  C202  S    
C59   C134  S    
C184  C187  A    
C136  O36   A    
C62   O50   S    
C32   C128  A    
C17   H17   S    
C144  C152  A    
C125  C213  S    
C56   C137  S    
C14   H14   S    
C143  C151  A    
C190  C191  S    
C5    C73   S    
C150  H7    S    
C212  H99   S    
C109  H29   S    
C13   C171  A    
C203  H77   S    
C117  C125  A    
C227  H139  S    
C207  C208  S    
C25   C33   A    
C119  C127  A    
C5    O29   A    
C134  O34   A    
C214  H101  S    
C133  O43   A    
O4    Zn4   S    
O5    Zn5   S    
C157  C167  A    
C80   C120  A    
C158  C168  A    
C5    O5    A    
O26   Zn5   S    
C115  H35   S    
C164  C165  A    
C189  H45   S    
C40   C115  A    
C101  C109  A    
C210  H94   S    
O23   Zn7   S    
C177  C185  A    
O24   Zn8   S    
C103  C111  A    
C221  H124  S    
C209  H91   S    
C162  C166  A    
O44   Zn11  S    
C65   O53   S    
C2    O2    A    
C226  H133  S    
C217  H115  S    
O2    Zn2   S    
C199  C200  S    
C205  H83   S    
C208  H89   S    
C153  C155  A    
C120  H40   S    
C154  C156  A    
C172  C180  A    
C197  H63   S    
C173  C181  A    
O51   C195  S    
C157  C159  A    
C83   C99   A    
C158  C160  A    
C74   C82   A    
C191  H50   S    
C6    C74   S    
C1    O25   A    
C200  H71   S    
O46   Zn10  S    
C91   O15   A    
C47   C103  A    
C141  C149  A    
C50   C58   A    
C220  H118  S    
C218  H111  S    
C189  C190  S    
C147  C161  A    
C38   C113  A    
C49   C105  A    
C54   C62   A    
C214  H103  S    
C215  H109  S    
C1    C69   S    
C23   C44   A    
C187  H11   S    
C116  H36   S    
C3    C71   S    
C19   C173  A    
C79   C95   A    
C92   C179  S    
C203  H79   S    
O47   Zn10  S    
C46   C54   A    
C85   O9    A    
C67   O55   S    
C114  H34   S    
O36   Zn11  S    
C108  H28   S    
C45   C101  A    
C92   O24   A    
C19   C142  A    
C61   O49   S    
C17   C144  A    
C102  C110  A    
C35   C131  A    
C4    C72   S    
C33   C129  A    
O35   Zn12  S    
C123  C131  A    
C136  O42   A    
C57   C65   A    
C88   O12   A    
C217  C218  S    
C120  C128  A    
C26   C37   A    
C10   C170  A    
C28   C39   A    
C33   C41   A    
C108  C116  A    
C36   C132  A    
C131  C225  S    
C198  H66   S    
C75   C83   A    
C90   O14   A    
C77   C93   A    
C211  H97   S    
C196  H61   S    
C44   C111  A    
C16   C170  A    
C123  H43   S    
C60   C68   A    
C72   C80   A    
C192  H52   S    
C29   C37   A    
C50   C106  A    
C186  H10   S    
C9    C172  A    
C148  C156  A    
C83   C123  A    
C2    C70   S    
C60   C133  S    
O16   Zn3   S    
C86   O18   A    
C194  H56   S    
C30   C126  A    
C70   C78   A    
C53   C140  S    
C134  O44   A    
C190  H47   S    
C220  H116  S    
C218  H113  S    
C126  C215  S    
C207  H88   S    
C224  H126  S    
C119  H39   S    
C132  C227  S    
C202  H75   S    
C46   C102  A    
C117  H37   S    
C55   C138  S    
C152  H5    S    
C106  C114  A    
C155  H2    S    
C77   C117  A    
O20   Zn4   S    
O21   Zn5   S    
C48   C104  A    
C65   C73   A    
C159  C168  A    
C15   C169  A    
C160  C167  A    
C227  C228  S    
C208  H90   S    
C104  C112  A    
C58   C66   A    
C13   H13   S    
C210  H95   S    
C57   C136  S    
O9    Zn6   S    
C80   C96   A    
O39   Zn10  S    
C222  H122  S    
O6    Zn6   S    
C225  H135  S    
C145  C153  A    
C28   C100  A    
C226  H132  S    
C196  C197  S    
C204  H81   S    
C89   O21   A    
C19   H19   S    
O18   Zn2   S    
C128  C219  S    
C163  C166  A    
C26   C34   A    
C143  C157  A    
C228  H138  S    
C51   C99   A    
C122  H42   S    
C11   C173  A    
C105  H25   S    
C11   C167  A    
C222  H123  S    
C14   C172  A    
C225  C226  S    
C102  H22   S    
C88   C183  S    
C7    C75   S    
C139  O39   A    
C140  O40   A    
C86   C181  S    
C213  H105  S    
C87   O11   A    
C192  C193  S    
C223  H129  S    
C107  C115  A    
C212  H98   S    
C26   C98   A    
C12   C175  A    
O50   C192  S    
C2    O26   A    
C203  H78   S    
C41   C110  A    
C195  H60   S    
C150  C152  A    
C51   C59   A    
C43   C112  A    
C20   H20   S    
C144  C158  A    
C227  H140  S    
C224  H128  S    
C193  H54   S    
C47   C55   A    
C202  C203  S    
C61   C69   A    
C48   C56   A    
C214  H102  S    
C142  C160  A    
C12   C168  A    
C198  C199  S    
C225  H134  S    
C84   C124  A    
C18   H18   S    
C189  H46   S    
C216  H106  S    
C81   C97   A    
C31   C39   A    
C64   C72   A    
C110  H30   S    
C209  H92   S    
O28   Zn7   S    
C180  C185  A    
O29   Zn2   S    
C206  H86   S    
C34   C130  A    
O12   Zn7   S    
C201  H73   S    
C194  H58   S    
O13   Zn2   S    
C47   C95   A    
C66   O54   S    
C118  C126  A    
C13   C148  A    
C122  C130  A    
C153  H4    S    
