data_str_m4_o22_o22_f0_acs.sym.86
_audit_creation_date              2013-03-05T15:47:09-0500
_audit_creation_method            fapswitch 2.2
_symmetry_space_group_name_H-M    P1
_symmetry_Int_Tables_number       1
_space_group_crystal_system       triclinic
_cell_length_a                    19.66794
_cell_length_b                    11.397382
_cell_length_c                    18.76719
_cell_angle_alpha                 89.471588
_cell_angle_beta                  89.00964
_cell_angle_gamma                 89.936586
_cell_volume                      4206.10087835

loop_
_atom_site_label
_atom_site_type_symbol
_atom_site_description
_atom_site_fract_x
_atom_site_fract_y
_atom_site_fract_z
_atom_type_partial_charge
O1    O     O_R   0.957210 0.449410 0.665480 -0.515389
O2    O     O_R   0.042790 0.449410 0.334520 -0.518586
O3    O     O_R   0.457210 0.949410 0.665480 -0.515364
O4    O     O_R   0.542790 0.949410 0.334520 -0.518587
O5    O     O_R   0.820730 0.541240 0.668250 -0.458970
O6    O     O_R   0.179270 0.541240 0.331750 -0.462878
O7    O     O_R   0.320730 0.041240 0.668250 -0.458966
O8    O     O_R   0.679270 0.041240 0.331750 -0.462888
C1    C     C_R   0.759476 0.530142 0.641096 0.542615
C2    C     C_R   0.237664 0.520188 0.361608 0.546003
C3    C     C_R   0.259476 0.030141 0.641097 0.542624
C4    C     C_R   0.737666 0.020198 0.361605 0.546010
O9    O     O_R   0.714240 0.455060 0.663710 -0.548067
O10   O     O_R   0.285760 0.455060 0.336290 -0.529130
O11   O     O_R   0.214240 0.955060 0.663710 -0.548060
O12   O     O_R   0.785760 0.955060 0.336290 -0.529122
O13   O     O_R   0.736780 0.204870 0.675910 -0.512641
O14   O     O_R   0.263220 0.204870 0.324090 -0.524096
O15   O     O_R   0.236780 0.704870 0.675910 -0.512631
O16   O     O_R   0.763220 0.704870 0.324090 -0.524095
C5    C     C_R   0.790779 0.159466 0.640898 0.529208
C6    C     C_R   0.223339 0.121787 0.350876 0.538025
C7    C     C_R   0.290779 0.659465 0.640898 0.529205
C8    C     C_R   0.723342 0.621779 0.350873 0.538018
O17   O     O_R   0.833070 0.087590 0.673490 -0.460470
O18   O     O_R   0.166930 0.087590 0.326510 -0.458491
O19   O     O_R   0.333070 0.587590 0.673490 -0.460585
O20   O     O_R   0.666930 0.587590 0.326510 -0.458494
O21   O     O_R   0.946890 0.246800 0.676300 -0.517525
O22   O     O_R   0.053110 0.246800 0.323700 -0.513579
O23   O     O_R   0.446890 0.746800 0.676300 -0.517617
O24   O     O_R   0.553110 0.746800 0.323700 -0.513584
C9    C     C_R   0.973241 0.341606 0.647406 0.516345
C10   C     C_R   0.030107 0.341521 0.354724 0.520535
C11   C     C_R   0.473240 0.841608 0.647406 0.516346
C12   C     C_R   0.530109 0.841523 0.354725 0.520535
O25   O     O_R   0.956650 0.457120 0.827980 -0.530557
O26   O     O_R   0.043350 0.457120 0.172020 -0.530385
O27   O     O_R   0.456650 0.957120 0.827980 -0.530550
O28   O     O_R   0.543350 0.957120 0.172020 -0.530384
O29   O     O_R   0.820220 0.548390 0.818890 -0.504819
O30   O     O_R   0.179780 0.548390 0.181110 -0.502085
O31   O     O_R   0.320220 0.048390 0.818890 -0.504813
O32   O     O_R   0.679780 0.048390 0.181110 -0.502084
C13   C     C_R   0.760496 0.532429 0.849121 0.534822
C14   C     C_R   0.240804 0.536668 0.152471 0.534272
C15   C     C_R   0.260496 0.032428 0.849121 0.534823
C16   C     C_R   0.740804 0.036668 0.152471 0.534271
O33   O     O_R   0.713680 0.462770 0.826210 -0.531938
O34   O     O_R   0.286320 0.462770 0.173790 -0.532282
O35   O     O_R   0.213680 0.962770 0.826210 -0.531937
O36   O     O_R   0.786320 0.962770 0.173790 -0.532283
O37   O     O_R   0.736260 0.212010 0.826560 -0.506820
O38   O     O_R   0.263740 0.212010 0.173440 -0.510487
O39   O     O_R   0.236260 0.712010 0.826560 -0.506819
O40   O     O_R   0.763740 0.712010 0.173440 -0.510488
C17   C     C_R   0.773974 0.132896 0.859100 0.538151
C18   C     C_R   0.226378 0.132244 0.141370 0.531974
C19   C     C_R   0.273974 0.632896 0.859100 0.538162
C20   C     C_R   0.726378 0.632244 0.141370 0.531972
O41   O     O_R   0.832520 0.095300 0.836000 -0.523674
O42   O     O_R   0.167480 0.095300 0.164000 -0.524228
O43   O     O_R   0.332520 0.595300 0.836000 -0.523666
O44   O     O_R   0.667480 0.595300 0.164000 -0.524228
O45   O     O_R   0.946380 0.253940 0.826940 -0.514848
O46   O     O_R   0.053620 0.253940 0.173060 -0.514718
O47   O     O_R   0.446380 0.753940 0.826940 -0.514851
O48   O     O_R   0.553620 0.753940 0.173060 -0.514718
C21   C     C_R   0.966345 0.353100 0.854971 0.529127
C22   C     C_R   0.031897 0.353683 0.146074 0.527580
C23   C     C_R   0.466345 0.853100 0.854971 0.529129
C24   C     C_R   0.531897 0.853683 0.146074 0.527581
Cr1   Cr    Cr6+3 0.885690 0.492860 0.745310 1.048442
Cr2   Cr    Cr6+3 0.114310 0.492860 0.254690 1.047562
Cr3   Cr    Cr6+3 0.385690 0.992860 0.745310 1.048493
Cr4   Cr    Cr6+3 0.614310 0.992860 0.254690 1.047559
Cr5   Cr    Cr6+3 0.729880 0.332270 0.748190 1.004059
Cr6   Cr    Cr6+3 0.270120 0.332270 0.251810 1.007181
Cr7   Cr    Cr6+3 0.229880 0.832270 0.748190 1.004059
Cr8   Cr    Cr6+3 0.770120 0.832270 0.251810 1.007190
Cr9   Cr    Cr6+3 0.888120 0.178590 0.753010 1.033681
Cr10  Cr    Cr6+3 0.111880 0.178590 0.246990 1.032182
Cr11  Cr    Cr6+3 0.388120 0.678590 0.753010 1.033566
Cr12  Cr    Cr6+3 0.611880 0.678590 0.246990 1.032179
O49   O     O_3   0.834560 0.334570 0.748840 -0.305323
O50   O     O_3   0.165440 0.334570 0.251160 -0.294704
O51   O     O_3   0.334560 0.834570 0.748840 -0.305312
O52   O     O_3   0.665440 0.834570 0.251160 -0.294699
C25   C     C_3   0.685766 0.111580 0.472994 -0.062285
C26   C     C_3   0.315603 0.080821 0.523050 -0.050999
C27   C     C_3   0.185766 0.611553 0.473002 -0.062291
C28   C     C_3   0.815604 0.580796 0.523046 -0.050926
H1    H     H_    0.653544 0.038859 0.477123 0.084840
H2    H     H_    0.336454 0.997195 0.530625 0.076502
H3    H     H_    0.153549 0.538824 0.477136 0.084817
H4    H     H_    0.836452 0.497175 0.530640 0.076500
C29   C     C_3   0.700469 0.137193 0.550825 -0.240495
C30   C     C_3   0.305270 0.089901 0.443073 -0.254808
C31   C     C_3   0.200471 0.637176 0.550830 -0.240495
C32   C     C_3   0.805273 0.589834 0.443065 -0.254845
H5    H     H_    0.679572 0.223837 0.565069 0.165938
H6    H     H_    0.331646 0.169601 0.421977 0.189637
H7    H     H_    0.179577 0.723825 0.565068 0.165935
H8    H     H_    0.831676 0.669488 0.421945 0.189674
H9    H     H_    0.672423 0.073997 0.586231 0.116921
H10   H     H_    0.328378 0.013867 0.415035 0.086258
H11   H     H_    0.172427 0.573985 0.586241 0.116922
H12   H     H_    0.828354 0.513758 0.415049 0.086214
H13   H     H_    0.726360 0.912191 0.500600 0.046136
H14   H     H_    0.226897 0.883320 0.543985 0.096452
H15   H     H_    0.226378 0.412174 0.500608 0.046142
H16   H     H_    0.726890 0.383321 0.543982 0.096452
C33   C     C_3   0.772580 0.956444 0.481857 -0.234930
C34   C     C_3   0.204494 0.966912 0.531613 -0.242434
C35   C     C_3   0.272592 0.456425 0.481859 -0.234883
C36   C     C_3   0.704485 0.466916 0.531615 -0.242427
C37   C     C_3   0.804794 0.157509 0.432661 -0.229597
C38   C     C_3   0.207489 0.179922 0.552392 -0.255732
C39   C     C_3   0.304791 0.657504 0.432661 -0.229570
C40   C     C_3   0.707498 0.679924 0.552386 -0.255731
C41   C     C_3   0.749786 0.063365 0.434445 0.030052
C42   C     C_3   0.247893 0.067752 0.564721 0.014344
C43   C     C_3   0.249788 0.563349 0.434449 0.030060
C44   C     C_3   0.747893 0.567748 0.564720 0.014353
H17   H     H_    0.852007 0.121261 0.408258 0.164411
H18   H     H_    0.158945 0.173091 0.582557 0.111124
H19   H     H_    0.352006 0.621267 0.408255 0.164427
H20   H     H_    0.658946 0.673098 0.582537 0.111117
C45   C     C_3   0.778215 0.123543 0.565494 -0.011751
C46   C     C_3   0.229129 0.093087 0.426977 -0.002974
C47   C     C_3   0.278217 0.623533 0.565496 -0.011766
C48   C     C_3   0.729132 0.593072 0.426973 -0.002982
C49   C     C_3   0.802280 0.993812 0.552174 -0.030170
C50   C     C_3   0.193295 0.976747 0.451337 -0.054845
C51   C     C_3   0.302285 0.493799 0.552179 -0.030169
C52   C     C_3   0.693282 0.476752 0.451339 -0.054828
C53   C     C_3   0.817370 0.198226 0.509065 -0.272809
C54   C     C_3   0.195553 0.191578 0.470522 -0.244950
C55   C     C_3   0.317368 0.698221 0.509065 -0.272802
C56   C     C_3   0.695582 0.691589 0.470514 -0.244965
H21   H     H_    0.805117 0.290474 0.511015 0.088479
H22   H     H_    0.213672 0.271267 0.445231 0.115002
H23   H     H_    0.305114 0.790468 0.511014 0.088465
H24   H     H_    0.713757 0.771244 0.445237 0.115073
H25   H     H_    0.871238 0.189608 0.518511 0.135881
H26   H     H_    0.141266 0.189788 0.462449 0.130956
H27   H     H_    0.371237 0.689612 0.518507 0.135927
H28   H     H_    0.641298 0.689868 0.462420 0.130916
H29   H     H_    0.805325 0.891060 0.454093 0.190609
H30   H     H_    0.155662 0.963813 0.561700 0.207535
H31   H     H_    0.305336 0.391036 0.454095 0.190556
H32   H     H_    0.655654 0.463821 0.561706 0.207522
C57   C     C_3   0.004753 0.203273 0.460354 -0.204573
C58   C     C_3   0.003769 0.202587 0.543238 -0.206874
C59   C     C_3   0.504765 0.703287 0.460357 -0.204520
C60   C     C_3   0.503771 0.702602 0.543240 -0.206888
H33   H     H_    0.044326 0.147963 0.437886 0.184848
H34   H     H_    0.963797 0.144824 0.564754 0.180664
H35   H     H_    0.544352 0.647999 0.437900 0.184826
H36   H     H_    0.463793 0.644849 0.564750 0.180455
H37   H     H_    0.958025 0.162881 0.440174 0.152049
H38   H     H_    0.051105 0.162657 0.562894 0.138614
H39   H     H_    0.458044 0.662883 0.440166 0.152120
H40   H     H_    0.551102 0.662667 0.562904 0.138556
H41   H     H_    0.617574 0.873029 0.451299 0.094924
H42   H     H_    0.392469 0.859482 0.552622 0.094812
H43   H     H_    0.117573 0.372994 0.451296 0.094912
H44   H     H_    0.892474 0.359470 0.552621 0.094814
H45   H     H_    0.606332 0.847908 0.575747 0.101853
H46   H     H_    0.400839 0.841115 0.426686 0.098950
H47   H     H_    0.106332 0.347896 0.575747 0.101856
H48   H     H_    0.900838 0.341118 0.426686 0.098950
C61   C     C_3   0.066926 0.398838 0.471031 -0.216829
C62   C     C_3   0.939697 0.394848 0.530750 -0.215958
C63   C     C_3   0.566926 0.898859 0.471033 -0.216840
C64   C     C_3   0.439694 0.894855 0.530750 -0.215952
C65   C     C_3   0.944221 0.389422 0.449219 -0.272354
C66   C     C_3   0.061946 0.393423 0.552911 -0.268625
C67   C     C_3   0.444220 0.889424 0.449220 -0.272361
C68   C     C_3   0.561945 0.893437 0.552913 -0.268619
C69   C     C_3   0.011115 0.330300 0.431484 0.027008
C70   C     C_3   0.996032 0.330294 0.571289 0.031546
C71   C     C_3   0.511118 0.830310 0.431486 0.026989
C72   C     C_3   0.496032 0.830304 0.571289 0.031578
H49   H     H_    0.943008 0.479795 0.426269 0.171142
H50   H     H_    0.061592 0.483791 0.574940 0.155222
H51   H     H_    0.443005 0.979795 0.426268 0.171109
H52   H     H_    0.561591 0.983803 0.574944 0.155228
H53   H     H_    0.943598 0.488728 0.544190 0.203329
H54   H     H_    0.057629 0.492078 0.456578 0.197117
H55   H     H_    0.443596 0.988737 0.544188 0.203322
H56   H     H_    0.557621 0.992097 0.456582 0.197109
C73   C     C_3   0.820413 0.030830 0.047132 -0.233391
C74   C     C_3   0.187009 0.009846 0.957402 -0.229227
C75   C     C_3   0.320413 0.530830 0.047132 -0.233392
C76   C     C_3   0.687009 0.509846 0.957402 -0.229227
H57   H     H_    0.832949 0.939211 0.062229 0.139655
H58   H     H_    0.181413 0.918525 0.942189 0.137539
H59   H     H_    0.332949 0.439211 0.062229 0.139655
H60   H     H_    0.681413 0.418525 0.942189 0.137539
H61   H     H_    0.860990 0.085424 0.069605 0.116007
H62   H     H_    0.141269 0.053752 0.935335 0.116850
H63   H     H_    0.360990 0.585424 0.069605 0.116007
H64   H     H_    0.641269 0.553752 0.935335 0.116848
C77   C     C_3   0.822357 0.037034 0.967042 -0.224510
C78   C     C_3   0.184877 0.017462 0.037402 -0.229238
C79   C     C_3   0.322358 0.537034 0.967042 -0.224510
C80   C     C_3   0.684876 0.517462 0.037402 -0.229238
H65   H     H_    0.871069 0.072719 0.949882 0.137198
H66   H     H_    0.132412 0.043323 0.052652 0.137187
H67   H     H_    0.371069 0.572719 0.949882 0.137199
H68   H     H_    0.632412 0.543323 0.052652 0.137187
H69   H     H_    0.823022 0.946304 0.945467 0.118344
H70   H     H_    0.192477 0.929707 0.061542 0.121860
H71   H     H_    0.323022 0.446304 0.945467 0.118346
H72   H     H_    0.692477 0.429707 0.061542 0.121860
H73   H     H_    0.700238 0.922478 0.049494 0.107915
H74   H     H_    0.337006 0.948075 0.951933 0.108652
H75   H     H_    0.200238 0.422477 0.049494 0.107915
H76   H     H_    0.837006 0.448075 0.951933 0.108653
C81   C     C_3   0.693417 0.012520 0.034245 -0.220709
C82   C     C_3   0.317445 0.033921 0.967234 -0.213170
C83   C     C_3   0.193417 0.512520 0.034245 -0.220709
C84   C     C_3   0.817445 0.533921 0.967234 -0.213169
C85   C     C_3   0.745018 0.203980 0.060643 -0.252836
C86   C     C_3   0.243719 0.199264 0.937095 -0.256954
C87   C     C_3   0.245018 0.703980 0.060643 -0.252836
C88   C     C_3   0.743719 0.699264 0.937095 -0.256954
C89   C     C_3   0.750186 0.072992 0.076002 0.058492
C90   C     C_3   0.252221 0.068036 0.925448 0.060271
C91   C     C_3   0.250186 0.572992 0.076002 0.058492
C92   C     C_3   0.752221 0.568036 0.925448 0.060272
H77   H     H_    0.697186 0.238258 0.085058 0.121935
H78   H     H_    0.287447 0.249101 0.913801 0.118907
H79   H     H_    0.197186 0.738258 0.085058 0.121934
H80   H     H_    0.787447 0.749101 0.913801 0.118903
H81   H     H_    0.788179 0.251593 0.084229 0.105360
H82   H     H_    0.197358 0.231956 0.910403 0.106695
H83   H     H_    0.288179 0.751593 0.084229 0.105360
H84   H     H_    0.697357 0.731956 0.910403 0.106693
C93   C     C_3   0.760212 0.105540 0.936724 0.059569
C94   C     C_3   0.240607 0.102991 0.064161 0.056490
C95   C     C_3   0.260212 0.605540 0.936724 0.059568
C96   C     C_3   0.740607 0.602991 0.064161 0.056490
C97   C     C_3   0.699281 0.026338 0.951950 -0.260833
C98   C     C_3   0.308953 0.045282 0.049156 -0.252412
C99   C     C_3   0.199281 0.526338 0.951950 -0.260833
C100  C     C_3   0.808953 0.545282 0.049156 -0.252412
C101  C     C_3   0.744706 0.220997 0.978548 -0.219230
C102  C     C_3   0.238921 0.217427 0.018912 -0.229988
C103  C     C_3   0.244706 0.720997 0.978548 -0.219231
C104  C     C_3   0.738921 0.717427 0.018912 -0.229987
H85   H     H_    0.777277 0.293646 0.961369 0.107030
H86   H     H_    0.189772 0.251032 0.030190 0.108627
H87   H     H_    0.277278 0.793646 0.961369 0.107030
H88   H     H_    0.689772 0.751032 0.030190 0.108627
H89   H     H_    0.692011 0.245326 0.965135 0.118927
H90   H     H_    0.279157 0.278163 0.035825 0.122638
H91   H     H_    0.192011 0.745326 0.965135 0.118926
H92   H     H_    0.779157 0.778163 0.035825 0.122638
H93   H     H_    0.643346 0.045073 0.052748 0.130817
H94   H     H_    0.355869 0.099620 0.950579 0.124424
H95   H     H_    0.143346 0.545073 0.052748 0.130816
H96   H     H_    0.855869 0.599620 0.950579 0.124423
H97   H     H_    0.652192 0.065781 0.930328 0.111578
H98   H     H_    0.349601 0.101692 0.070710 0.116376
H99   H     H_    0.152191 0.565781 0.930328 0.111577
H100  H     H_    0.849601 0.601692 0.070710 0.116375
C105  C     C_3   0.995444 0.478157 0.041786 -0.233646
C106  C     C_3   0.991540 0.477735 0.961031 -0.224782
C107  C     C_3   0.495444 0.978157 0.041786 -0.233647
C108  C     C_3   0.491540 0.977735 0.961031 -0.224782
H101  H     H_    0.034652 0.542351 0.056705 0.131622
H102  H     H_    0.950184 0.533680 0.944273 0.133217
H103  H     H_    0.534652 0.042351 0.056705 0.131622
H104  H     H_    0.450184 0.033680 0.944273 0.133217
H105  H     H_    0.947481 0.510885 0.065698 0.119011
H106  H     H_    0.037344 0.521993 0.938051 0.117114
H107  H     H_    0.447481 0.010885 0.065698 0.119011
H108  H     H_    0.537344 0.021993 0.938051 0.117115
H109  H     H_    0.608437 0.855881 0.033263 0.108858
H110  H     H_    0.383954 0.783904 0.961405 0.106802
H111  H     H_    0.108437 0.355881 0.033263 0.108858
H112  H     H_    0.883954 0.283904 0.961405 0.106800
H113  H     H_    0.596586 0.847673 0.914344 0.105597
H114  H     H_    0.401116 0.820352 0.083439 0.103260
H115  H     H_    0.096586 0.347673 0.914344 0.105598
H116  H     H_    0.901116 0.320352 0.083439 0.103260
C109  C     C_3   0.067781 0.297220 0.024636 -0.227439
C110  C     C_3   0.936785 0.271156 0.975955 -0.214750
C111  C     C_3   0.567781 0.797220 0.024636 -0.227439
C112  C     C_3   0.436785 0.771156 0.975955 -0.214750
C113  C     C_3   0.946228 0.279710 0.057373 -0.250465
C114  C     C_3   0.056594 0.296453 0.943266 -0.258825
C115  C     C_3   0.446228 0.779710 0.057373 -0.250466
C116  C     C_3   0.556594 0.796454 0.943266 -0.258825
C117  C     C_3   0.009592 0.352240 0.069874 0.057920
C118  C     C_3   0.987046 0.350393 0.931536 0.062654
C119  C     C_3   0.509592 0.852240 0.069874 0.057920
C120  C     C_3   0.487046 0.850393 0.931536 0.062654
H117  H     H_    0.953362 0.190974 0.081086 0.118960
H118  H     H_    0.059175 0.205392 0.922651 0.114011
H119  H     H_    0.453362 0.690975 0.081086 0.118960
H120  H     H_    0.559175 0.705392 0.922651 0.114009
H121  H     H_    0.950465 0.180265 0.961912 0.122429
H122  H     H_    0.078918 0.207527 0.043778 0.131771
H123  H     H_    0.450465 0.680265 0.961912 0.122430
H124  H     H_    0.578918 0.707527 0.043778 0.131771
C121  C     C_2   0.879406 0.971789 0.551124 0.594211
O53   O     O_2   0.911766 0.973317 0.494827 -0.545039
O54   O     O_R   0.913066 0.943506 0.614095 -0.628823
H125  H     H_    0.963677 0.930555 0.606320 0.336931
C122  C     C_2   0.115931 0.962300 0.435945 0.606880
O55   O     O_2   0.073319 0.964486 0.484250 -0.558065
O56   O     O_R   0.093025 0.935764 0.367672 -0.612638
H126  H     H_    0.041592 0.933118 0.364755 0.327841
C123  C     C_2   0.379410 0.471798 0.551132 0.594208
O57   O     O_2   0.411781 0.473439 0.494843 -0.545083
O58   O     O_R   0.413065 0.443439 0.614094 -0.628839
H127  H     H_    0.463718 0.431118 0.606383 0.336898
C124  C     C_2   0.615919 0.462320 0.435950 0.606883
O59   O     O_2   0.573309 0.464506 0.484257 -0.558031
O60   O     O_R   0.593010 0.435788 0.367678 -0.612661
H128  H     H_    0.541578 0.433188 0.364760 0.327849
C125  C     C_2   0.641140 0.198146 0.435968 0.563789
O61   O     O_2   0.658936 0.242862 0.379339 -0.482717
O62   O     O_R   0.575044 0.214125 0.462710 -0.693249
H129  H     H_    0.543603 0.251168 0.426798 0.373971
C126  C     C_2   0.365001 0.174137 0.548363 0.560373
O63   O     O_2   0.352671 0.231460 0.601680 -0.484219
O64   O     O_R   0.425982 0.192638 0.510533 -0.713404
H130  H     H_    0.456574 0.251393 0.534289 0.386327
C127  C     C_2   0.141137 0.698118 0.435982 0.563808
O65   O     O_2   0.158933 0.742846 0.379355 -0.482708
O66   O     O_R   0.075043 0.714096 0.462729 -0.693319
H131  H     H_    0.043600 0.751163 0.426826 0.373964
C128  C     C_2   0.865005 0.674120 0.548343 0.560327
O67   O     O_2   0.852685 0.731454 0.601658 -0.484407
O68   O     O_R   0.925982 0.692603 0.510503 -0.713443
H132  H     H_    0.956585 0.751342 0.534255 0.386139
H133  H     H_    0.706168 0.939858 0.926206 0.109561
H134  H     H_    0.311738 0.957995 0.075555 0.105432
H135  H     H_    0.206169 0.439858 0.926206 0.109562
H136  H     H_    0.811738 0.457995 0.075555 0.105432
H137  H     H_    0.780639 0.937298 0.595708 0.143843
H138  H     H_    0.221309 0.904311 0.425131 0.133286
H139  H     H_    0.280647 0.437288 0.595716 0.143879
H140  H     H_    0.721289 0.404307 0.425135 0.133305
H141  H     H_    0.789389 0.233024 0.398676 0.132493
H142  H     H_    0.233757 0.257248 0.573266 0.149233
H143  H     H_    0.289379 0.733019 0.398678 0.132496
H144  H     H_    0.733765 0.757247 0.573267 0.149243

loop_
_geom_bond_atom_site_label_1
_geom_bond_atom_site_label_2
_geom_bond_distance
_ccdc_geom_bond_type
H48   C65   1.108052 S    
C31   H7    1.102607 S    
O4    C12   1.306443 A    
C113  C117  1.519032 S    
C101  H85   1.090435 S    
O25   C21   1.300094 A    
C110  C113  1.546394 S    
C85   H81   1.108808 S    
C14   C91   1.498347 S    
C106  H102  1.082168 S    
Cr7   O51   2.059286 S    
C128  O67   1.220744 D    
C127  O65   1.220366 D    
C93   C97   1.522643 S    
C87   C103  1.551191 S    
C27   C127  1.494362 S    
C114  C118  1.517733 S    
O39   C19   1.319167 A    
C75   H63   1.104320 S    
C107  C108  1.518858 S    
O21   C9    1.308030 A    
C32   H8    1.112762 S    
C73   H61   1.104320 S    
C1    O9    1.298420 A    
O44   Cr12  2.118689 S    
C3    O11   1.298419 A    
C64   C67   1.532969 S    
C49   H137  1.114645 S    
C4    O12   1.288811 A    
C102  H86   1.058080 S    
H47   C66   1.105832 S    
C76   H64   1.113225 S    
H45   C68   1.105837 S    
C106  C118  1.561240 S    
C29   H9    1.115331 S    
O2    C10   1.306467 A    
C107  H107  1.103659 S    
H112  C110  1.088167 S    
C33   C49   1.517122 S    
C6    C46   1.468548 S    
O17   Cr9   2.135893 S    
C46   C50   1.563217 S    
H73   C81   1.071766 S    
C35   C43   1.571792 S    
O16   Cr8   1.981063 S    
O60   H128  1.014466 S    
C56   H24   1.078859 S    
C93   C101  1.565440 S    
C84   H96   1.103748 S    
C115  C119  1.519032 S    
C30   H6    1.112789 S    
O13   C5    1.344771 A    
O28   Cr4   2.146765 S    
C57   H37   1.102818 S    
O12   Cr8   2.150713 S    
O22   Cr10  1.993518 S    
O15   C7    1.344775 A    
C52   H140  1.106407 S    
O46   Cr10  2.001588 S    
C80   H68   1.106446 S    
C62   C65   1.532963 S    
C66   C70   1.516344 S    
H109  C111  1.058423 S    
C45   C49   1.572877 S    
H110  C112  1.088167 S    
C21   C118  1.500274 S    
C34   H30   1.106101 S    
C46   C54   1.536442 S    
C85   H77   1.111394 S    
C104  H92   1.104589 S    
C63   C71   1.551372 S    
C64   C72   1.537809 S    
C97   H97   1.110500 S    
Cr12  O52   2.070220 S    
C32   C48   1.533127 S    
C17   O41   1.297128 A    
C39   C43   1.524343 S    
C19   O43   1.297128 A    
C30   H10   1.110715 S    
C20   O44   1.296281 A    
C109  C117  1.548689 S    
C39   C55   1.535368 S    
Cr8   O52   2.059221 S    
O46   C22   1.314207 A    
C62   H53   1.104630 S    
O66   H131  1.011677 S    
C66   H50   1.113332 S    
C16   O36   1.294357 A    
C45   C53   1.547808 S    
C124  O59   1.224323 D    
C35   H31   1.111821 S    
C59   C60   1.555217 S    
C58   H34   1.095356 S    
O27   C23   1.300094 A    
C38   C54   1.562726 S    
O31   C15   1.307786 A    
O32   C16   1.313736 A    
C87   C91   1.521505 S    
O47   Cr11  2.013619 S    
C9    C70   1.496430 S    
C25   C125  1.494370 S    
C26   C126  1.525883 S    
C62   C70   1.537797 S    
H44   C62   1.085491 S    
O24   C12   1.307898 A    
C88   H84   1.110320 S    
C59   C71   1.545540 S    
C122  O56   1.401264 S    
O8    Cr4   2.026825 S    
C38   C42   1.522535 S    
C125  O62   1.397695 S    
C55   H23   1.079196 S    
O11   Cr7   2.131153 S    
C4    C41   1.480382 S    
C76   C92   1.553220 S    
C40   C56   1.562699 S    
O27   Cr3   2.140740 S    
O3    Cr3   2.099466 S    
H14   C34   1.074375 S    
C37   H141  1.111451 S    
O8    C4    1.307559 A    
C99   H99   1.110500 S    
C39   H143  1.111462 S    
Cr5   O49   2.059286 S    
C108  H108  1.111562 S    
C27   C43   1.544391 S    
C79   H67   1.083878 S    
C126  O64   1.398345 S    
C77   C93   1.562385 S    
C75   H59   1.108084 S    
C121  O54   1.399411 S    
C32   H12   1.110691 S    
C95   C103  1.565440 S    
O22   C10   1.307883 A    
C59   H35   1.083225 S    
C60   H36   1.095328 S    
C2    O10   1.288793 A    
C63   H56   1.110071 S    
C64   H55   1.104639 S    
C36   H32   1.106136 S    
C83   C99   1.553335 S    
C86   C90   1.522143 S    
C76   C80   1.504531 S    
O5    C1    1.322809 A    
C78   H66   1.106446 S    
O3    C11   1.314231 A    
C48   C52   1.563205 S    
C5    C45   1.501404 S    
C34   C50   1.529422 S    
C105  H105  1.103659 S    
C52   C124  1.562783 S    
C12   C71   1.486357 S    
C97   H133  1.108833 S    
Cr1   O49   2.066377 S    
C28   C128  1.525878 S    
C112  H123  1.103143 S    
C16   C89   1.498347 S    
Cr3   O51   2.066377 S    
C3    C42   1.513237 S    
C128  O68   1.398343 S    
C113  H117  1.110912 S    
C24   C119  1.503309 S    
H16   C36   1.074401 S    
C115  H119  1.110911 S    
O26   Cr2   2.146765 S    
C116  H120  1.111763 S    
C5    O17   1.320579 A    
O29   C13   1.307786 A    
C74   C90   1.553220 S    
C50   H138  1.106424 S    
C58   H38   1.103535 S    
C8    O20   1.270313 A    
C63   C68   1.538760 S    
O40   Cr8   2.025236 S    
H46   C67   1.108052 S    
O41   Cr9   2.106871 S    
C78   H70   1.105267 S    
C74   H58   1.088008 S    
C35   C51   1.517127 S    
C61   C66   1.538760 S    
C54   H26   1.081253 S    
C65   C69   1.510900 S    
C22   C117  1.503309 S    
O33   Cr5   2.116761 S    
O5    Cr1   2.018781 S    
O35   Cr7   2.116761 S    
C47   C55   1.547830 S    
O29   Cr1   1.979480 S    
C68   C72   1.516356 S    
C33   C41   1.571737 S    
C82   C90   1.562001 S    
C59   H39   1.102823 S    
C27   C31   1.524783 S    
C98   H98   1.110501 S    
C37   H17   1.109338 S    
Cr9   O49   2.066976 S    
C39   H19   1.109359 S    
C18   O42   1.296281 A    
Cr11  O51   2.066976 S    
O26   C22   1.301018 A    
O20   Cr12  2.121313 S    
C110  C118  1.564388 S    
C73   C89   1.552313 S    
C83   H95   1.103544 S    
C60   C72   1.558699 S    
C40   H144  1.100672 S    
C15   C90   1.498533 S    
C94   C98   1.518959 S    
C53   H25   1.081427 S    
C81   H93   1.103544 S    
C28   C44   1.539337 S    
C67   H51   1.113157 S    
C74   H62   1.113224 S    
C61   H54   1.110080 S    
C65   H49   1.113159 S    
C10   C69   1.486358 S    
O30   C14   1.313736 A    
C123  O58   1.399407 S    
C17   C93   1.506950 S    
C68   H52   1.113331 S    
C103  H91   1.105211 S    
C99   H135  1.108833 S    
C84   C100  1.550226 S    
O6    Cr2   2.026825 S    
C13   C92   1.498533 S    
C100  H136  1.109009 S    
O28   C24   1.301018 A    
C108  C120  1.561239 S    
H43   C61   1.097617 S    
O42   Cr10  2.118689 S    
C77   H69   1.113986 S    
O56   H126  1.014498 S    
O18   Cr10  2.121313 S    
O14   C6    1.320546 A    
C105  C106  1.518858 S    
O31   Cr3   1.979480 S    
O34   Cr6   2.098198 S    
C49   C121  1.537072 S    
C82   H94   1.103749 S    
C83   C91   1.541982 S    
C26   H2    1.046651 S    
C127  O66   1.397704 S    
O24   Cr12  1.993518 S    
C20   C96   1.511196 S    
O30   Cr2   1.972233 S    
C94   C102  1.550426 S    
C2    C43   1.480377 S    
C54   H22   1.078938 S    
O37   C17   1.319167 A    
C51   C123  1.537023 S    
C15   O35   1.297929 A    
C109  H122  1.103413 S    
Cr10  O50   2.070220 S    
C85   C89   1.521505 S    
C96   C100  1.518959 S    
O43   Cr11  2.106871 S    
O48   Cr12  2.001588 S    
O37   Cr5   2.006602 S    
O64   H130  1.012361 S    
O21   Cr9   1.984137 S    
O39   Cr7   2.006602 S    
C8    C48   1.468553 S    
O45   Cr9   2.013619 S    
O68   H132  1.012345 S    
C13   O33   1.297929 A    
C108  H104  1.082168 S    
C87   H83   1.108808 S    
C30   C46   1.533143 S    
C79   H71   1.113986 S    
H116  C113  1.108763 S    
O15   Cr7   1.999101 S    
C50   C122  1.562815 S    
C57   C69   1.545583 S    
C95   C99   1.522643 S    
O23   C11   1.308044 A    
C112  C120  1.564387 S    
C88   C92   1.522143 S    
C86   C102  1.552497 S    
C53   H21   1.079207 S    
C36   C44   1.571385 S    
C80   C96   1.560231 S    
C101  H89   1.105211 S    
C86   H78   1.112168 S    
O6    C2    1.307582 A    
C40   H20   1.103988 S    
C36   C52   1.529416 S    
C48   C56   1.536412 S    
C31   H11   1.115328 S    
C109  C114  1.546718 S    
C105  H101  1.104919 S    
O1    Cr1   2.099466 S    
C106  H106  1.111562 S    
O19   Cr11  2.135893 S    
C111  C116  1.546718 S    
C11   C72   1.496409 S    
C107  C119  1.550843 S    
O62   H129  1.011657 S    
C82   C98   1.550226 S    
C122  O55   1.224326 D    
C25   C41   1.544371 S    
O45   C21   1.314263 A    
H113  C116  1.111081 S    
H114  C115  1.108764 S    
O47   C23   1.314263 A    
C57   H33   1.083244 S    
C125  O61   1.220361 D    
C114  H118  1.111763 S    
H75   C83   1.071768 S    
O58   H127  1.014018 S    
O40   C20   1.324985 A    
C116  C120  1.517733 S    
C75   C79   1.503906 S    
C6    O18   1.270315 A    
C81   C89   1.541982 S    
O36   Cr8   2.098198 S    
O38   Cr6   2.025236 S    
O54   H125  1.014397 S    
C86   H82   1.110320 S    
C126  O63   1.220737 D    
C28   H4    1.046633 S    
C76   H60   1.088008 S    
C56   H28   1.081233 S    
C105  C117  1.550843 S    
O1    C9    1.314254 A    
C121  O53   1.223958 D    
H111  C109  1.058423 S    
O7    C3    1.322802 A    
C55   H27   1.081421 S    
C19   C95   1.506950 S    
C107  H103  1.104919 S    
C47   C51   1.572919 S    
C84   C92   1.562001 S    
C1    C44   1.513253 S    
O23   Cr11  1.984137 S    
O32   Cr4   1.972233 S    
C37   C41   1.524328 S    
C23   C120  1.500276 S    
C103  H87   1.090435 S    
O16   C8    1.320555 A    
C124  O60   1.401256 S    
C7    O19   1.320559 A    
C38   H142  1.100659 S    
C111  C119  1.548689 S    
Cr4   O52   2.065500 S    
O2    Cr2   2.093675 S    
O48   C24   1.314207 A    
C104  H88   1.058080 S    
Cr6   O50   2.059221 S    
O10   Cr6   2.150713 S    
C80   H72   1.105267 S    
C25   H1    1.045409 S    
C26   C42   1.539328 S    
C78   C94   1.560231 S    
O13   Cr5   1.999101 S    
H74   C82   1.090094 S    
C67   C71   1.510917 S    
C74   C78   1.504531 S    
O9    Cr5   2.131153 S    
O4    Cr4   2.093675 S    
C33   H29   1.111795 S    
O7    Cr3   2.018781 S    
C27   H3    1.045421 S    
C7    C47   1.501406 S    
C25   C29   1.524817 S    
C79   C95   1.562385 S    
C77   H65   1.083878 S    
C75   C91   1.552313 S    
C98   H134  1.109009 S    
Cr2   O50   2.065500 S    
O14   Cr6   1.981063 S    
C111  H124  1.103413 S    
H76   C84   1.090095 S    
C28   C32   1.520722 S    
O38   C18   1.324985 A    
O25   Cr1   2.140740 S    
C110  H121  1.103143 S    
C85   C101  1.551191 S    
C96   C104  1.550426 S    
C112  C115  1.546393 S    
C37   C53   1.535382 S    
C100  H100  1.110501 S    
H13   C33   1.091404 S    
H41   C63   1.097611 S    
C87   H79   1.111394 S    
C14   O34   1.294357 A    
H42   C64   1.085510 S    
H115  C114  1.111081 S    
C31   C47   1.565666 S    
C51   H139  1.114646 S    
C29   C45   1.565698 S    
C18   C94   1.511196 S    
C81   C97   1.553335 S    
C73   H57   1.108084 S    
C58   C70   1.558745 S    
C26   C30   1.520694 S    
C61   C69   1.551362 S    
C123  O57   1.223945 D    
C88   H80   1.112168 S    
C34   C42   1.571381 S    
C88   C104  1.552497 S    
C60   H40   1.103533 S    
C73   C77   1.503906 S    
H15   C35   1.091347 S    
C38   H18   1.103993 S    
C57   C58   1.555235 S    
C102  H90   1.104590 S    
C29   H5    1.102602 S    
C40   C44   1.522513 S    
