data_str_m2_o18_o18_f0_pcu.sym.83
_audit_creation_date              2013-03-05T16:00:04-0500
_audit_creation_method            fapswitch 2.2
_symmetry_space_group_name_H-M    P1
_symmetry_Int_Tables_number       1
_space_group_crystal_system       triclinic
_cell_length_a                    20.664833
_cell_length_b                    21.810504
_cell_length_c                    14.937803
_cell_angle_alpha                 89.662949
_cell_angle_beta                  130.873478
_cell_angle_gamma                 90.599618
_cell_volume                      5090.63385746

loop_
_atom_site_label
_atom_site_type_symbol
_atom_site_description
_atom_site_fract_x
_atom_site_fract_y
_atom_site_fract_z
_atom_type_partial_charge
O1    O     O_R   0.600040 0.935040 0.546740 -0.587300
O2    O     O_R   0.399960 0.064960 0.453260 -0.583000
O3    O     O_R   0.399960 0.935040 0.453260 -0.590095
O4    O     O_R   0.600040 0.064960 0.546740 -0.589196
O5    O     O_R   0.100040 0.435040 0.546740 -0.582850
O6    O     O_R   0.899960 0.564960 0.453260 -0.583326
O7    O     O_R   0.899960 0.435040 0.453260 -0.586618
O8    O     O_R   0.100040 0.564960 0.546740 -0.593971
O9    O     O_R   0.555010 0.935070 0.653220 -0.577537
O10   O     O_R   0.444990 0.064930 0.346780 -0.575896
O11   O     O_R   0.444990 0.935070 0.346780 -0.594987
O12   O     O_R   0.555010 0.064930 0.653220 -0.584851
O13   O     O_R   0.055010 0.435070 0.653220 -0.583449
O14   O     O_R   0.944990 0.564930 0.346780 -0.585390
O15   O     O_R   0.944990 0.435070 0.346780 -0.580682
O16   O     O_R   0.055010 0.564930 0.653220 -0.583177
C1    C     C_R   0.596265 0.909690 0.623406 0.798054
C2    C     C_R   0.402201 0.089486 0.374712 0.803179
C3    C     C_R   0.397649 0.912780 0.369688 0.783001
C4    C     C_R   0.603237 0.086815 0.631440 0.781590
C5    C     C_R   0.100258 0.412113 0.628694 0.797628
C6    C     C_R   0.900846 0.588431 0.372560 0.800441
C7    C     C_R   0.899828 0.411081 0.372571 0.796767
C8    C     C_R   0.099257 0.589379 0.626417 0.795923
Cu1   Cu    Cu3+1 0.526640 0.000000 0.436960 0.905384
Cu2   Cu    Cu3+1 0.473360 0.000000 0.563040 0.908945
Cu3   Cu    Cu3+1 0.026640 0.500000 0.436960 0.906999
Cu4   Cu    Cu3+1 0.973360 0.500000 0.563040 0.906755
C9    C     C_R   0.667261 0.135458 0.711242 -0.112706
C10   C     C_R   0.337218 0.861859 0.294957 -0.103996
C11   C     C_R   0.357234 0.148457 0.318253 -0.111098
C12   C     C_R   0.637796 0.849176 0.676784 -0.099467
C13   C     C_R   0.146742 0.648257 0.685682 -0.114732
C14   C     C_R   0.848065 0.354135 0.309318 -0.110149
C15   C     C_R   0.850985 0.643871 0.306400 -0.106942
C16   C     C_R   0.154210 0.358707 0.699124 -0.111300
C17   C     C_R   0.781528 0.208460 0.775276 0.184037
C18   C     C_R   0.231786 0.783346 0.243168 0.181833
C19   C     C_R   0.285781 0.240900 0.305732 0.199243
C20   C     C_R   0.685894 0.746060 0.676807 0.194610
C21   C     C_R   0.229184 0.739779 0.715325 0.193780
C22   C     C_R   0.739449 0.277862 0.252982 0.183786
C23   C     C_R   0.782549 0.740649 0.282044 0.188845
C24   C     C_R   0.236852 0.268274 0.734562 0.185081
C25   C     C_R   0.707515 0.173581 0.683211 0.171716
C26   C     C_R   0.303468 0.821499 0.330170 0.165995
C27   C     C_R   0.342613 0.191537 0.373401 0.134486
C28   C     C_R   0.638776 0.800596 0.614259 0.168025
C29   C     C_R   0.182171 0.686068 0.648756 0.157235
C30   C     C_R   0.799223 0.323736 0.332184 0.160713
C31   C     C_R   0.840971 0.693287 0.357432 0.178645
C32   C     C_R   0.172680 0.311746 0.654156 0.175849
C33   C     C_R   0.688251 0.142757 0.819908 -0.298595
C34   C     C_R   0.314203 0.853516 0.185259 -0.304236
C35   C     C_R   0.334461 0.163965 0.210654 -0.291572
C36   C     C_R   0.666595 0.837097 0.789246 -0.303304
C37   C     C_R   0.148078 0.670173 0.774796 -0.303317
C38   C     C_R   0.849019 0.329231 0.224273 -0.303572
C39   C     C_R   0.821391 0.649948 0.191725 -0.300516
C40   C     C_R   0.182196 0.353031 0.812797 -0.297042
C41   C     C_R   0.746643 0.187367 0.902117 0.020908
C42   C     C_R   0.259988 0.805652 0.109699 0.020644
C43   C     C_R   0.299891 0.221295 0.157531 0.017253
C44   C     C_R   0.699555 0.780095 0.844087 0.020551
C45   C     C_R   0.194071 0.722827 0.841198 0.017263
C46   C     C_R   0.803453 0.275514 0.160758 0.018835
C47   C     C_R   0.777845 0.702215 0.123510 0.021815
C48   C     C_R   0.230193 0.302839 0.885239 0.022087
C49   C     C_R   0.801920 0.215512 0.887478 0.074652
C50   C     C_R   0.208090 0.776251 0.128907 0.076608
C51   C     C_R   0.267315 0.258820 0.197976 0.078052
C52   C     C_R   0.723547 0.738591 0.797917 0.074429
C53   C     C_R   0.245846 0.752039 0.822503 0.091313
C54   C     C_R   0.746690 0.249343 0.174003 0.084691
C55   C     C_R   0.745773 0.742058 0.160956 0.081276
C56   C     C_R   0.269014 0.265968 0.853757 0.078178
C57   C     C_R   0.750831 0.204258 0.998305 0.045743
C58   C     C_R   0.255588 0.787905 0.014177 0.044191
C59   C     C_R   0.294699 0.239967 0.061585 0.041666
C60   C     C_R   0.711217 0.764855 0.946353 0.043795
C61   C     C_R   0.194060 0.744286 0.931303 0.041739
C62   C     C_R   0.809319 0.250045 0.078314 0.040769
C63   C     C_R   0.762585 0.714606 0.017060 0.040946
C64   C     C_R   0.242618 0.289517 0.989624 0.043475
C65   C     C_R   0.316448 0.808494 0.005926 -0.225325
C66   C     C_R   0.697508 0.177527 0.016165 -0.218874
C67   C     C_R   0.665220 0.794855 0.972343 -0.229837
C68   C     C_R   0.346441 0.213324 0.042242 -0.230879
C69   C     C_R   0.874221 0.267512 0.076628 -0.232752
C70   C     C_R   0.131820 0.725319 0.937557 -0.232676
C71   C     C_R   0.203321 0.323103 0.022919 -0.215700
C72   C     C_R   0.801505 0.681013 0.983193 -0.218025
C73   C     C_R   0.312962 0.791128 0.913059 0.169186
C74   C     C_R   0.699699 0.195840 0.107378 0.169989
C75   C     C_R   0.678425 0.781604 0.074940 0.174656
C76   C     C_R   0.337683 0.228196 0.943577 0.178069
C77   C     C_R   0.873582 0.249588 0.986129 0.176859
C78   C     C_R   0.136490 0.741212 0.032600 0.175263
C79   C     C_R   0.219787 0.311990 0.128956 0.176547
C80   C     C_R   0.782396 0.691447 0.875197 0.176225
H1    H     H_    0.338870 0.885588 0.158636 0.166310
H2    H     H_    0.657294 0.112394 0.838371 0.166912
H3    H     H_    0.664438 0.873255 0.835778 0.157212
H4    H     H_    0.344511 0.130751 0.168202 0.157880
H5    H     H_    0.885941 0.352889 0.207742 0.165596
H6    H     H_    0.115824 0.643755 0.796077 0.167694
H7    H     H_    0.166116 0.389144 0.843729 0.159812
H8    H     H_    0.832037 0.612591 0.155844 0.159527
H9    H     H_    0.371418 0.835495 0.075563 0.159135
H10   H     H_    0.653965 0.140470 0.962604 0.151444
H11   H     H_    0.613787 0.825587 0.908245 0.146059
H12   H     H_    0.398634 0.183697 0.108597 0.148219
H13   H     H_    0.929124 0.293255 0.149525 0.145317
H14   H     H_    0.076220 0.699771 0.865296 0.143429
H15   H     H_    0.160235 0.359926 0.968624 0.149663
H16   H     H_    0.848947 0.646820 0.041253 0.152530
N1    N     N_R   0.433280 0.000000 0.657760 -0.193770
N2    N     N_R   0.566720 0.000000 0.342240 -0.194704
N3    N     N_R   0.933280 0.500000 0.657760 -0.192090
N4    N     N_R   0.066720 0.500000 0.342240 -0.192498
C81   C     C_R   0.317543 0.016749 0.660248 -0.015211
C82   C     C_R   0.685278 0.989138 0.343471 -0.009734
C83   C     C_R   0.820974 0.469135 0.661018 -0.013222
C84   C     C_R   0.178263 0.532047 0.337823 -0.009845
C85   C     C_R   0.346160 0.007776 0.596715 0.213862
C86   C     C_R   0.654430 0.994177 0.404784 0.207022
C87   C     C_R   0.847081 0.490351 0.598252 0.218316
C88   C     C_R   0.152799 0.511192 0.401767 0.208768
C89   C     C_R   0.491015 0.994876 0.780208 0.288293
C90   C     C_R   0.510257 0.007183 0.220279 0.282266
C91   C     C_R   0.990569 0.505431 0.780373 0.276400
C92   C     C_R   0.009559 0.493068 0.219805 0.276041
C93   C     C_R   0.462540 0.000816 0.845318 -0.059602
C94   C     C_R   0.540699 0.004582 0.157331 -0.053172
C95   C     C_R   0.961594 0.496940 0.844354 -0.051838
C96   C     C_R   0.038119 0.501102 0.155207 -0.057158
C97   C     C_R   0.379197 0.022625 0.783611 0.071297
C98   C     C_R   0.624958 0.984661 0.219977 0.076137
C99   C     C_R   0.882955 0.466461 0.785327 0.063619
C100  C     C_R   0.116001 0.532778 0.213176 0.078653
C101  C     C_R   0.514141 0.990482 0.970576 0.101109
C102  C     C_R   0.489856 0.015725 0.032672 0.107692
C103  C     C_R   0.009500 0.512897 0.966465 0.098525
C104  C     C_R   0.989701 0.484894 0.032674 0.099509
C105  C     C_R   0.418278 0.053520 0.968860 -0.249408
C106  C     C_R   0.586837 0.953659 0.035761 -0.251163
C107  C     C_R   0.925463 0.439451 0.975371 -0.237186
C108  C     C_R   0.072344 0.559024 0.022326 -0.246815
C109  C     C_R   0.359778 0.051786 0.846910 -0.211957
C110  C     C_R   0.645905 0.957078 0.157508 -0.223166
C111  C     C_R   0.868864 0.433908 0.852863 -0.211509
C112  C     C_R   0.128575 0.565507 0.144159 -0.221409
H17   H     H_    0.301097 0.076474 0.803565 0.151974
H18   H     H_    0.705631 0.933691 0.201574 0.153480
H19   H     H_    0.815715 0.402153 0.812049 0.157294
H20   H     H_    0.180719 0.597775 0.182601 0.155653
H21   H     H_    0.406134 0.084864 0.011317 0.165624
H22   H     H_    0.599956 0.921911 0.995184 0.168613
H23   H     H_    0.917169 0.408464 0.023617 0.161502
H24   H     H_    0.079449 0.590264 0.973173 0.165684
C113  C     C_3   0.391082 0.806386 0.928244 -0.904939
H25   H     H_    0.449519 0.800129 0.022347 0.240234
H26   H     H_    0.398141 0.775238 0.876826 0.251251
H27   H     H_    0.389386 0.854981 0.904166 0.238593
C114  C     C_3   0.656535 0.153094 0.134741 -0.881651
H28   H     H_    0.656130 0.105151 0.109641 0.228745
H29   H     H_    0.691486 0.151940 0.230675 0.234318
H30   H     H_    0.588939 0.165892 0.082918 0.242795
C115  C     C_3   0.608097 0.797898 0.075717 -0.904862
H31   H     H_    0.549353 0.811624 0.986150 0.238115
H32   H     H_    0.591255 0.757353 0.102429 0.240644
H33   H     H_    0.626194 0.836469 0.135461 0.250221
C116  C     C_3   0.412093 0.213678 0.950543 -0.901374
H34   H     H_    0.469534 0.201930 0.042438 0.224519
H35   H     H_    0.398142 0.174124 0.894488 0.250701
H36   H     H_    0.429551 0.254520 0.925314 0.239976
C117  C     C_3   0.955043 0.262726 0.007967 -0.876989
H37   H     H_    0.008135 0.277661 0.100494 0.214489
H38   H     H_    0.978109 0.220239 0.996759 0.238385
H39   H     H_    0.946732 0.300620 0.951785 0.246683
C118  C     C_3   0.058034 0.726466 0.017214 -0.881409
H40   H     H_    0.004086 0.709941 0.926442 0.221409
H41   H     H_    0.070217 0.689326 0.077077 0.247650
H42   H     H_    0.034761 0.768564 0.029232 0.240378
C119  C     C_3   0.188749 0.360800 0.164545 -0.863518
H43   H     H_    0.164101 0.401826 0.106428 0.224370
H44   H     H_    0.134709 0.343879 0.156957 0.238022
H45   H     H_    0.242635 0.378081 0.254240 0.227125
C120  C     C_3   0.836109 0.657423 0.856372 -0.877932
H46   H     H_    0.895546 0.639147 0.940853 0.235673
H47   H     H_    0.800741 0.617488 0.796912 0.237260
H48   H     H_    0.857558 0.689076 0.821887 0.232310
C121  C     C_3   0.347354 0.815731 0.460246 -0.836977
H49   H     H_    0.414216 0.833056 0.519702 0.245519
H50   H     H_    0.310386 0.840238 0.478796 0.232220
H51   H     H_    0.354273 0.766694 0.485256 0.221257
C122  C     C_3   0.668421 0.180456 0.555284 -0.847027
H52   H     H_    0.599795 0.167262 0.491681 0.243486
H53   H     H_    0.668147 0.229398 0.534290 0.222871
H54   H     H_    0.704437 0.152847 0.538570 0.231375
C123  C     C_3   0.584856 0.803378 0.480918 -0.882579
H55   H     H_    0.547503 0.845386 0.438800 0.262330
H56   H     H_    0.625961 0.798345 0.458038 0.227285
H57   H     H_    0.536004 0.766130 0.438460 0.230949
C124  C     C_3   0.394296 0.189250 0.506208 -0.827132
H58   H     H_    0.460742 0.174504 0.552340 0.236681
H59   H     H_    0.400314 0.235461 0.541943 0.229755
H60   H     H_    0.364887 0.157790 0.529468 0.234952
C125  C     C_3   0.811487 0.337933 0.441481 -0.842499
H61   H     H_    0.880650 0.337679 0.521184 0.250702
H62   H     H_    0.783478 0.382994 0.431133 0.228294
H63   H     H_    0.781156 0.303081 0.458493 0.223494
C126  C     C_3   0.167055 0.670636 0.537263 -0.815807
H64   H     H_    0.097301 0.666756 0.460757 0.246950
H65   H     H_    0.193103 0.704367 0.512364 0.221437
H66   H     H_    0.199227 0.627276 0.550243 0.230220
C127  C     C_3   0.119698 0.304251 0.521626 -0.846818
H67   H     H_    0.063981 0.334988 0.467184 0.244346
H68   H     H_    0.160050 0.311270 0.497906 0.227895
H69   H     H_    0.091316 0.257414 0.494603 0.223554
C128  C     C_3   0.897019 0.699269 0.490793 -0.869211
H70   H     H_    0.943929 0.662250 0.541945 0.248164
H71   H     H_    0.936302 0.741785 0.520778 0.229661
H72   H     H_    0.857018 0.701584 0.515787 0.226171
C129  C     C_3   0.249846 0.787550 0.662926 -0.914541
H73   H     H_    0.191304 0.798575 0.571097 0.235910
H74   H     H_    0.270404 0.831682 0.710456 0.241121
H75   H     H_    0.300376 0.770753 0.662899 0.236714
C130  C     C_3   0.659891 0.270249 0.238409 -0.885270
H76   H     H_    0.645943 0.313021 0.262872 0.237037
H77   H     H_    0.602539 0.262872 0.144257 0.242900
H78   H     H_    0.667696 0.232877 0.295380 0.232227
C131  C     C_3   0.767878 0.793163 0.333275 -0.892138
H79   H     H_    0.818141 0.798874 0.430120 0.234823
H80   H     H_    0.768031 0.837322 0.296349 0.223823
H81   H     H_    0.706789 0.785922 0.314473 0.236094
C132  C     C_3   0.263309 0.220771 0.689985 -0.884252
H82   H     H_    0.222340 0.218288 0.592779 0.231927
H83   H     H_    0.328271 0.231434 0.723102 0.238864
H84   H     H_    0.260178 0.174405 0.717634 0.224421
C133  C     C_3   0.833376 0.240449 0.749354 -0.877120
H85   H     H_    0.808341 0.234596 0.658105 0.232079
H86   H     H_    0.835512 0.290387 0.763647 0.226213
H87   H     H_    0.898230 0.220857 0.804116 0.239533
C134  C     C_3   0.187103 0.747556 0.277090 -0.880425
H88   H     H_    0.214714 0.754089 0.369437 0.231580
H89   H     H_    0.120518 0.763252 0.224934 0.240250
H90   H     H_    0.190159 0.697768 0.266148 0.225160
C135  C     C_3   0.240971 0.267624 0.345898 -0.893725
H91   H     H_    0.249709 0.239145 0.414880 0.234612
H92   H     H_    0.266045 0.313891 0.384633 0.231610
H93   H     H_    0.170871 0.266952 0.272069 0.232140
C136  C     C_3   0.685468 0.693069 0.610445 -0.885415
H94   H     H_    0.634826 0.695170 0.513206 0.237498
H95   H     H_    0.746649 0.691530 0.628532 0.229970
H96   H     H_    0.672551 0.649284 0.634588 0.232315
C137  C     C_3   0.414722 0.009650 0.150151 -0.791703
H97   H     H_    0.393606 0.057490 0.131730 0.191513
H98   H     H_    0.379140 0.982389 0.067378 0.200499
H99   H     H_    0.392257 0.991349 0.192930 0.266337
C138  C     C_3   0.585980 0.989848 0.847909 -0.793252
H100  H     H_    0.624084 0.016815 0.931222 0.193033
H101  H     H_    0.603950 0.941278 0.863827 0.192450
H102  H     H_    0.608812 0.007103 0.805081 0.266143
C139  C     C_3   0.914200 0.486667 0.149994 -0.790002
H103  H     H_    0.876846 0.509288 0.062304 0.197633
H104  H     H_    0.895421 0.438021 0.138259 0.202734
H105  H     H_    0.891341 0.508826 0.189473 0.263133
C140  C     C_3   0.086070 0.511559 0.850704 -0.791278
H106  H     H_    0.105456 0.560079 0.864790 0.199897
H107  H     H_    0.122953 0.487912 0.937403 0.192442
H108  H     H_    0.109079 0.490831 0.810430 0.263500
C141  C     C_3   0.720961 0.990044 0.539721 -0.339618
C142  C     C_3   0.759289 0.925142 0.583256 -0.368784
C143  C     C_3   0.820367 0.920818 0.718059 -0.840490
H109  H     H_    0.875089 0.953060 0.758241 0.250725
H110  H     H_    0.786686 0.931946 0.750812 0.250503
H111  H     H_    0.845370 0.873428 0.746128 0.247027
H112  H     H_    0.707465 0.890883 0.545032 0.254188
H113  H     H_    0.794351 0.911207 0.554180 0.204440
H114  H     H_    0.771761 0.025224 0.575478 0.148316
H115  H     H_    0.697326 0.002928 0.583308 0.259055
C144  C     C_3   0.277426 0.005383 0.461331 -0.344111
C145  C     C_3   0.227928 0.066022 0.403069 -0.399190
C146  C     C_3   0.137958 0.054407 0.285092 -0.864833
H116  H     H_    0.141414 0.029533 0.223646 0.256684
H117  H     H_    0.099189 0.026987 0.298211 0.250511
H118  H     H_    0.105585 0.098890 0.244175 0.253404
H119  H     H_    0.223832 0.093415 0.461534 0.216457
H120  H     H_    0.261023 0.095219 0.383365 0.250055
H121  H     H_    0.300758 0.993579 0.416832 0.248996
H122  H     H_    0.233029 0.966787 0.437347 0.166944
C147  C     C_3   0.221533 0.500121 0.534694 -0.354462
C148  C     C_3   0.268440 0.439695 0.560862 -0.372087
C149  C     C_3   0.328226 0.423764 0.692392 -0.832750
H123  H     H_    0.378446 0.459756 0.744996 0.248889
H124  H     H_    0.291918 0.419708 0.723170 0.256822
H125  H     H_    0.359559 0.379229 0.707432 0.244796
H126  H     H_    0.220982 0.402121 0.509467 0.232089
H127  H     H_    0.307086 0.442854 0.533971 0.217560
H128  H     H_    0.267456 0.538704 0.581361 0.140950
H129  H     H_    0.196512 0.498987 0.579405 0.261408
C150  C     C_3   0.778593 0.507746 0.468694 -0.369156
C151  C     C_3   0.752882 0.574886 0.457941 -0.359419
C152  C     C_3   0.686304 0.594653 0.328822 -0.828185
H130  H     H_    0.710714 0.587862 0.281929 0.255891
H131  H     H_    0.626357 0.567584 0.283563 0.247018
H132  H     H_    0.671799 0.644004 0.324613 0.244535
H133  H     H_    0.726389 0.581988 0.502052 0.203494
H134  H     H_    0.810339 0.604535 0.503736 0.247056
H135  H     H_    0.798348 0.499860 0.417510 0.247813
H136  H     H_    0.721049 0.478130 0.422547 0.161247
C153  C     C_3   0.222246 0.016424 0.600577 -0.421003
C154  C     C_3   0.200100 0.961588 0.641359 -0.343468
C155  C     C_3   0.108301 0.964914 0.592508 -0.856281
H137  H     H_    0.099595 0.006918 0.625199 0.257129
H138  H     H_    0.062716 0.965332 0.494196 0.251661
H139  H     H_    0.094064 0.924224 0.622293 0.249336
H140  H     H_    0.206870 0.919124 0.607813 0.217841
H141  H     H_    0.243832 0.959025 0.739400 0.235253
H142  H     H_    0.204999 0.060323 0.617067 0.191752
H143  H     H_    0.177834 0.012842 0.503554 0.221543
C156  C     C_3   0.781390 0.989888 0.406354 -0.426695
C157  C     C_3   0.805265 0.044669 0.367617 -0.335724
C158  C     C_3   0.899793 0.043883 0.427627 -0.856601
H144  H     H_    0.940587 0.046156 0.525367 0.253133
H145  H     H_    0.914409 0.001442 0.403330 0.255042
H146  H     H_    0.914920 0.084098 0.398015 0.249730
H147  H     H_    0.767270 0.044031 0.270622 0.235914
H148  H     H_    0.791977 0.087858 0.391910 0.217543
H149  H     H_    0.824695 0.993282 0.503426 0.208921
H150  H     H_    0.799334 0.946132 0.390484 0.189818
C159  C     C_3   0.726815 0.457350 0.599811 -0.417188
C160  C     C_3   0.697032 0.392390 0.548184 -0.357708
C161  C     C_3   0.608342 0.378205 0.505964 -0.836589
H151  H     H_    0.609645 0.379996 0.581460 0.253886
H152  H     H_    0.561048 0.411746 0.437429 0.252441
H153  H     H_    0.587804 0.331493 0.466869 0.244559
H154  H     H_    0.694077 0.387437 0.471893 0.214123
H155  H     H_    0.742699 0.358208 0.615838 0.224983
H156  H     H_    0.716237 0.464855 0.662873 0.203329
H157  H     H_    0.684110 0.491547 0.529814 0.196265
C162  C     C_3   0.270570 0.552019 0.398991 -0.413742
C163  C     C_3   0.312320 0.510239 0.366582 -0.336551
C164  C     C_3   0.404777 0.529631 0.431746 -0.855521
H158  H     H_    0.407228 0.577504 0.408216 0.256611
H159  H     H_    0.443624 0.526322 0.529010 0.253458
H160  H     H_    0.432883 0.498956 0.406120 0.242310
H161  H     H_    0.311765 0.462091 0.390163 0.206776
H162  H     H_    0.276865 0.511397 0.270241 0.230658
H163  H     H_    0.271085 0.600275 0.375582 0.188192
H164  H     H_    0.313699 0.552907 0.496182 0.203452

loop_
_geom_bond_atom_site_label_1
_geom_bond_atom_site_label_2
_geom_bond_distance
_ccdc_geom_bond_type
C93   C97   1.405828 A    
C17   C49   1.444878 A    
C115  H32   1.110643 S    
Cu2   N1    2.054682 S    
C53   C73   1.419040 A    
C96   C100  1.406109 A    
C18   C50   1.443810 A    
C55   C75   1.415438 A    
C159  C160  1.534371 S    
C95   C99   1.403268 A    
C150  H135  1.091928 S    
C145  C146  1.527668 S    
C66   H10   1.073870 S    
C126  H66   1.102826 S    
C103  C104  1.426833 A    
C29   C126  1.519263 S    
C129  H75   1.110472 S    
C42   C50   1.424741 A    
C142  C143  1.526658 S    
C108  H24   1.076099 S    
C122  H53   1.109808 S    
C109  H17   1.077789 S    
C137  H99   1.079142 S    
C106  C110  1.377418 A    
C160  H154  1.106513 S    
C112  H20   1.079445 S    
C30   C125  1.512764 S    
C157  C158  1.525922 S    
O3    C3    1.313416 A    
C64   C71   1.410225 A    
C111  H19   1.081826 S    
C100  C112  1.406434 A    
C116  H35   1.102662 S    
C145  H120  1.100910 S    
C134  H88   1.104194 S    
C90   C94   1.434822 A    
C60   C63   1.409561 A    
C74   C114  1.512340 S    
C21   C29   1.424957 A    
C113  H26   1.107970 S    
O9    Cu2   1.928701 S    
C118  H41   1.104675 S    
C23   C55   1.432116 A    
C69   H13   1.079428 S    
C135  H92   1.106866 S    
C76   C116  1.508625 S    
C27   C124  1.518447 S    
C156  C157  1.535894 S    
C161  H152  1.111337 S    
C154  C155  1.525431 S    
C118  H40   1.109164 S    
C18   C134  1.520308 S    
C51   C79   1.434201 A    
O7    Cu4   1.929810 S    
C9    C25   1.412782 A    
C151  H134  1.105442 S    
C14   C30   1.417559 A    
C130  H76   1.111015 S    
C46   C62   1.429957 A    
C105  H21   1.072180 S    
O15   Cu3   1.914355 S    
C150  C151  1.534370 S    
C73   C113  1.509517 S    
C33   H2    1.069455 S    
C162  H164  1.099541 S    
O12   C4    1.318879 A    
C138  H102  1.077973 S    
O13   C5    1.311320 A    
O2    Cu2   1.938930 S    
C164  H160  1.110676 S    
C72   H16   1.079072 S    
C40   H7    1.074716 S    
C89   C93   1.435661 A    
C61   C70   1.407032 A    
C43   C51   1.427464 A    
C140  H107  1.110252 S    
C15   C31   1.416468 A    
C17   C25   1.429799 A    
C79   C119  1.514775 S    
C19   C27   1.421316 A    
C20   C28   1.433999 A    
C163  H161  1.108000 S    
O3    Cu2   1.929810 S    
C36   H3    1.074617 S    
C144  H122  1.111712 S    
C78   C118  1.512302 S    
C127  H67   1.104861 S    
C146  H117  1.109935 S    
C56   C76   1.418499 A    
C57   C62   1.408809 A    
C31   C128  1.518939 S    
C70   H14   1.079943 S    
C161  H151  1.111217 S    
O4    C4    1.315086 A    
C22   C130  1.517966 S    
O5    C5    1.316953 A    
C96   C104  1.442107 A    
C121  H49   1.107974 S    
C134  H90   1.107669 S    
C69   C77   1.401158 A    
C14   C38   1.396566 A    
C1    C12   1.493323 S    
C19   C51   1.442610 A    
C2    C11   1.488503 S    
C133  H86   1.105996 S    
C3    C10   1.483300 S    
C47   C63   1.428789 A    
C158  H146  1.110554 S    
C34   H1    1.077914 S    
O4    Cu1   1.929808 S    
C119  H43   1.111522 S    
C149  H124  1.109842 S    
C10   C34   1.387869 A    
C32   C127  1.519197 S    
C128  H70   1.102341 S    
C62   C69   1.406403 A    
C141  H115  1.078263 S    
O10   C2    1.318408 A    
C130  H78   1.108881 S    
C136  H94   1.103586 S    
C119  H44   1.105583 S    
O11   Cu1   1.914355 S    
C25   C122  1.518401 S    
C46   C54   1.424538 A    
C83   C99   1.406955 A    
C133  H85   1.104367 S    
C81   C97   1.400743 A    
C120  H47   1.108101 S    
C39   C47   1.398330 A    
C92   C139  1.515469 S    
O5    Cu3   1.938931 S    
C65   C73   1.395656 A    
O6    Cu4   1.938930 S    
C41   C57   1.431972 A    
C152  H131  1.110633 S    
C67   C75   1.398526 A    
N3    C91   1.389949 A    
C36   C44   1.398623 A    
N1    C89   1.387743 A    
C131  H79   1.104535 S    
C16   C32   1.413426 A    
C82   C156  1.544381 S    
C121  H51   1.110180 S    
C95   C103  1.437114 A    
C37   H6    1.069784 S    
C114  H29   1.105095 S    
C132  H82   1.104155 S    
C123  H56   1.110289 S    
C158  H144  1.110810 S    
C104  C107  1.404453 A    
C129  H73   1.110543 S    
C124  H59   1.110454 S    
C103  C108  1.399724 A    
C17   C133  1.519492 S    
C142  H112  1.104188 S    
C143  H111  1.110694 S    
C160  C161  1.526470 S    
C157  H147  1.107734 S    
C35   H4    1.072824 S    
O12   Cu2   1.914352 S    
C107  C111  1.389195 A    
C81   C85   1.424020 A    
C147  C148  1.534289 S    
C131  H80   1.108092 S    
C83   C87   1.426862 A    
C92   C96   1.432258 A    
C7    C14   1.497611 S    
C125  H61   1.110522 S    
C139  H104  1.100707 S    
C22   C30   1.414914 A    
O10   Cu1   1.928700 S    
C159  H157  1.106944 S    
C117  H37   1.110544 S    
C47   C55   1.417852 A    
C147  H128  1.104122 S    
C58   C65   1.410307 A    
C154  H140  1.108322 S    
C155  H139  1.110539 S    
C20   C52   1.435884 A    
C42   C58   1.424803 A    
C108  C112  1.383543 A    
C136  H96   1.108994 S    
C106  H22   1.069702 S    
C48   C56   1.422364 A    
O1    C1    1.316008 A    
C38   H5    1.070630 S    
O14   C6    1.309599 A    
C148  H126  1.108127 S    
O7    C7    1.314885 A    
C99   C111  1.406554 A    
O8    C8    1.316551 A    
C122  H52   1.108093 S    
C131  H81   1.108962 S    
C18   C26   1.429360 A    
C21   C53   1.426508 A    
C160  H155  1.106955 S    
C163  C164  1.526664 S    
C83   C159  1.533630 S    
C132  H84   1.107296 S    
C144  C145  1.550013 S    
C156  H150  1.108885 S    
C71   C79   1.405442 A    
N1    C85   1.399072 A    
C49   C77   1.432033 A    
C68   C76   1.398797 A    
C138  H100  1.109574 S    
C44   C60   1.419889 A    
C54   C74   1.421357 A    
C143  H109  1.110654 S    
C153  H143  1.099041 S    
Cu1   N2    2.054681 S    
C113  H25   1.110138 S    
Cu3   N4    2.054681 S    
C127  H69   1.110362 S    
O11   C3    1.317845 A    
C128  H72   1.109136 S    
C65   H9    1.079791 S    
C148  C149  1.526904 S    
C124  H60   1.107111 S    
C67   H11   1.082208 S    
C13   C29   1.425095 A    
O6    C6    1.317962 A    
C125  H63   1.109727 S    
C15   C39   1.397815 A    
C123  H55   1.097051 S    
C85   C144  1.533063 S    
C135  H93   1.106245 S    
C162  H163  1.109248 S    
O13   Cu4   1.928701 S    
O14   Cu3   1.928700 S    
C164  H159  1.110882 S    
C84   C88   1.429654 A    
C126  H65   1.104466 S    
C155  H137  1.110757 S    
C11   C27   1.411942 A    
C140  H106  1.099117 S    
C12   C28   1.425585 A    
C102  C105  1.395350 A    
C151  H133  1.110398 S    
C89   C138  1.513823 S    
C59   C68   1.408470 A    
C10   C26   1.414142 A    
C163  H162  1.108372 S    
C88   C147  1.526054 S    
C21   C129  1.516256 S    
C22   C54   1.429259 A    
C48   C64   1.433159 A    
C115  H33   1.099748 S    
C82   C98   1.398708 A    
C23   C131  1.520076 S    
C149  H123  1.110700 S    
C34   C42   1.397609 A    
C144  H121  1.079195 S    
C116  H34   1.108447 S    
Cu4   N3    2.054682 S    
C122  H54   1.110511 S    
C146  H116  1.111026 S    
N2    C90   1.386872 A    
C94   C102  1.438722 A    
C77   C117  1.514788 S    
C126  H64   1.110676 S    
C135  H91   1.109735 S    
C101  C106  1.396959 A    
C20   C136  1.523269 S    
C145  H119  1.109415 S    
C134  H89   1.105061 S    
C113  H27   1.110755 S    
C118  H42   1.109394 S    
C84   C100  1.409691 A    
C37   C45   1.400982 A    
C161  H153  1.110276 S    
N4    C88   1.392034 A    
C146  H118  1.110782 S    
C93   C101  1.441383 A    
C8    C13   1.498585 S    
C141  H114  1.109133 S    
C133  H87   1.104959 S    
C130  H77   1.107092 S    
C58   C61   1.408098 A    
C23   C31   1.423302 A    
C153  C154  1.534871 S    
C59   C64   1.406511 A    
C71   H15   1.075991 S    
C120  H46   1.111644 S    
C68   H12   1.082205 S    
C40   C48   1.399005 A    
C152  H130  1.110091 S    
C140  H108  1.083723 S    
O8    Cu3   1.929808 S    
C11   C35   1.387891 A    
C157  H148  1.110973 S    
C12   C36   1.391166 A    
C105  C109  1.378028 A    
C150  H136  1.105802 S    
O16   Cu4   1.914352 S    
C162  C163  1.541872 S    
C114  H28   1.111018 S    
O2    C2    1.314612 A    
C115  H31   1.109305 S    
C80   C120  1.513265 S    
C107  H23   1.076592 S    
C24   C132  1.520585 S    
C5    C16   1.477929 S    
C43   C59   1.422779 A    
C124  H58   1.109938 S    
C98   C110  1.400270 A    
C6    C15   1.476394 S    
C142  H113  1.106367 S    
C143  H110  1.110559 S    
C137  H97   1.097215 S    
C60   C67   1.407595 A    
C91   C95   1.432061 A    
C87   C150  1.519943 S    
C117  H39   1.105915 S    
C81   C153  1.541154 S    
C45   C53   1.415374 A    
C158  H145  1.110447 S    
C66   C74   1.394017 A    
C129  H74   1.102616 S    
C45   C61   1.427771 A    
C38   C46   1.407182 A    
C121  H50   1.110602 S    
C139  H103  1.110017 S    
O15   C7    1.323299 A    
C159  H156  1.110871 S    
O16   C8    1.321798 A    
O1    Cu1   1.938931 S    
C97   C109  1.403069 A    
C33   C41   1.400307 A    
Cu1   Cu2   2.733714 S    
C149  H125  1.110589 S    
C4    C9    1.489430 S    
C154  H141  1.110209 S    
C155  H138  1.110679 S    
C138  H101  1.098331 S    
C119  H45   1.105314 S    
C117  H38   1.108806 S    
C28   C123  1.519173 S    
C35   C43   1.403069 A    
C137  H98   1.110212 S    
C82   C86   1.422696 A    
C120  H48   1.107553 S    
C148  H127  1.105567 S    
C136  H95   1.107393 S    
C19   C135  1.516483 S    
C152  H132  1.110698 S    
C141  C142  1.546775 S    
C75   C115  1.507140 S    
O9    C1    1.319561 A    
C151  C152  1.525931 S    
C86   C141  1.527986 S    
C57   C66   1.412363 A    
C114  H30   1.103976 S    
C132  H83   1.107525 S    
C123  H57   1.110092 S    
C156  H149  1.100224 S    
C90   C137  1.514147 S    
C72   C80   1.405008 A    
C26   C121  1.518872 S    
C52   C80   1.429562 A    
C116  H36   1.110372 S    
C41   C49   1.428333 A    
C13   C37   1.400132 A    
N4    C92   1.391090 A    
C91   C140  1.516216 S    
C153  H142  1.108705 S    
C16   C40   1.395307 A    
C84   C162  1.539282 S    
C94   C98   1.405265 A    
C127  H68   1.108019 S    
C39   H8    1.078304 S    
C164  H158  1.110956 S    
C128  H71   1.110295 S    
C101  C102  1.427034 A    
C24   C32   1.424244 A    
C9    C33   1.388701 A    
C125  H62   1.103549 S    
C44   C52   1.416033 A    
C139  H105  1.085008 S    
C63   C72   1.410247 A    
C110  H18   1.078307 S    
Cu3   Cu4   2.733714 S    
N2    C86   1.400490 A    
C24   C56   1.437137 A    
C147  H129  1.079594 S    
C70   C78   1.403886 A    
C50   C78   1.430486 A    
N3    C87   1.389051 A    
