data_str_m4_o2_o17_f0_acs.sym.138
_audit_creation_date              2012-12-11T15:22:24-0500
_audit_creation_method            fapswitch 2.2
_symmetry_space_group_name_H-M    P1
_symmetry_Int_Tables_number       1
_space_group_crystal_system       triclinic
_cell_length_a                    22.444668
_cell_length_b                    13.054153
_cell_length_c                    26.914418
_cell_angle_alpha                 90.17738
_cell_angle_beta                  90.614569
_cell_angle_gamma                 89.968461
_cell_volume                      7885.32783762

loop_
_atom_site_label
_atom_site_type_symbol
_atom_type_description
_atom_site_fract_x
_atom_site_fract_y
_atom_site_fract_z
_atom_type_partial_charge
C1    C     C_R   0.721167 0.344727 0.178028 0.546238
C2    C     C_R   0.278957 0.345510 0.821762 0.554787
C3    C     C_R   0.221167 0.844727 0.178028 0.546238
C4    C     C_R   0.778957 0.845510 0.821762 0.554786
C5    C     C_R   0.476304 0.165491 0.871299 -0.002044
C6    C     C_R   0.523930 0.163613 0.128633 -0.006363
C7    C     C_R   0.976304 0.665491 0.871299 -0.002044
C8    C     C_R   0.023930 0.663613 0.128633 -0.006363
C9    C     C_R   0.518111 0.258035 0.103843 -0.136003
C10   C     C_R   0.478670 0.259539 0.897105 -0.128786
C11   C     C_R   0.018111 0.758035 0.103843 -0.136003
C12   C     C_R   0.978670 0.759539 0.897105 -0.128786
C13   C     C_R   0.505875 0.260239 0.052620 0.012660
C14   C     C_R   0.489583 0.261121 0.948557 0.013623
C15   C     C_R   0.005875 0.760239 0.052620 0.012660
C16   C     C_R   0.989583 0.761121 0.948557 0.013623
C17   C     C_R   0.500680 0.167051 0.026287 0.062224
C18   C     C_R   0.495001 0.167533 0.974270 0.065538
C19   C     C_R   0.000680 0.667051 0.026287 0.062224
C20   C     C_R   0.995001 0.667533 0.974270 0.065538
C21   C     C_R   0.501513 0.353306 0.026767 -0.135699
C22   C     C_R   0.492341 0.353721 0.975186 -0.134468
C23   C     C_R   0.001513 0.853306 0.026767 -0.135699
C24   C     C_R   0.992341 0.853721 0.975186 -0.134468
C25   C     C_R   0.740788 0.945981 0.132396 -0.001742
C26   C     C_R   0.254573 0.941362 0.865460 0.012776
C27   C     C_R   0.240788 0.445981 0.132396 -0.001743
C28   C     C_R   0.754573 0.441362 0.865460 0.012776
C29   C     C_R   0.797437 0.943521 0.111155 -0.143523
C30   C     C_R   0.202428 0.963881 0.891348 -0.150813
C31   C     C_R   0.297437 0.443521 0.111155 -0.143523
C32   C     C_R   0.702427 0.463881 0.891348 -0.150813
C33   C     C_R   0.803894 0.919326 0.061037 -0.133071
C34   C     C_R   0.197143 0.938046 0.941091 -0.140852
C35   C     C_R   0.303894 0.419326 0.061037 -0.133071
C36   C     C_R   0.697143 0.438046 0.941091 -0.140852
C37   C     C_R   0.753546 0.900969 0.030908 -0.036457
C38   C     C_R   0.244856 0.892657 0.967080 -0.029068
C39   C     C_R   0.253546 0.400969 0.030908 -0.036457
C40   C     C_R   0.744856 0.392657 0.967080 -0.029068
C41   C     C_R   0.696455 0.898035 0.052893 0.078546
C42   C     C_R   0.295326 0.858731 0.939509 0.082616
C43   C     C_R   0.196455 0.398035 0.052893 0.078548
C44   C     C_R   0.795326 0.358731 0.939509 0.082616
C45   C     C_R   0.553444 0.157257 0.177630 0.554099
C46   C     C_R   0.446903 0.157681 0.822217 0.545922
C47   C     C_R   0.053444 0.657257 0.177630 0.554099
C48   C     C_R   0.946903 0.657681 0.822217 0.545922
C49   C     C_R   0.691002 0.911392 0.104207 0.241597
C50   C     C_R   0.297841 0.877796 0.887867 0.258196
C51   C     C_R   0.191002 0.411391 0.104207 0.241598
C52   C     C_R   0.797841 0.377796 0.887867 0.258195
C53   C     C_R   0.725878 0.815607 0.950952 -0.096907
C54   C     C_R   0.267382 0.802510 0.047763 -0.075181
C55   C     C_R   0.225877 0.315607 0.950952 -0.096907
C56   C     C_R   0.767382 0.302510 0.047763 -0.075181
C57   C     C_R   0.719957 0.819613 0.899435 0.054233
C58   C     C_R   0.275521 0.806351 0.099095 0.048653
C59   C     C_R   0.219957 0.319614 0.899435 0.054232
C60   C     C_R   0.775521 0.306351 0.099095 0.048653
C61   C     C_R   0.799051 0.947087 0.898127 -0.122500
C62   C     C_R   0.208567 0.952235 0.102194 -0.145016
C63   C     C_R   0.299051 0.447087 0.898127 -0.122500
C64   C     C_R   0.708567 0.452234 0.102194 -0.145017
C65   C     C_R   0.796707 0.954888 0.949708 -0.100694
C66   C     C_R   0.212355 0.961020 0.050572 -0.119320
C67   C     C_R   0.296707 0.454888 0.949708 -0.100694
C68   C     C_R   0.712355 0.461020 0.050572 -0.119321
C69   C     C_R   0.760575 0.887984 0.976622 0.010660
C70   C     C_R   0.240737 0.884268 0.022368 0.021896
C71   C     C_R   0.260574 0.387984 0.976622 0.010661
C72   C     C_R   0.740737 0.384268 0.022368 0.021896
C73   C     C_R   0.761966 0.877547 0.872317 0.000999
C74   C     C_R   0.239216 0.873699 0.127211 -0.000252
C75   C     C_R   0.261966 0.377547 0.872317 0.000998
C76   C     C_R   0.739216 0.373699 0.127211 -0.000252
C77   C     C_R   0.528792 0.166536 0.371529 0.002145
C78   C     C_R   0.473452 0.171236 0.629942 0.024483
C79   C     C_R   0.028793 0.666537 0.371529 0.002146
C80   C     C_R   0.973457 0.671235 0.629944 0.024475
C81   C     C_R   0.526829 0.261485 0.395850 -0.112484
C82   C     C_R   0.457630 0.256580 0.600959 -0.094856
C83   C     C_R   0.026839 0.761485 0.395853 -0.112487
C84   C     C_R   0.957649 0.756588 0.600964 -0.094862
C85   C     C_R   0.518978 0.266318 0.447117 -0.114621
C86   C     C_R   0.471906 0.260159 0.550946 -0.087189
C87   C     C_R   0.018990 0.766316 0.447120 -0.114634
C88   C     C_R   0.971925 0.760167 0.550951 -0.087193
C89   C     C_R   0.731573 0.999747 0.179985 0.551432
C90   C     C_R   0.267492 0.998223 0.819270 0.563257
C91   C     C_R   0.231573 0.499747 0.179985 0.551431
C92   C     C_R   0.767492 0.498223 0.819270 0.563257
C93   C     C_R   0.511277 0.176069 0.474671 0.001949
C94   C     C_R   0.503652 0.179536 0.529144 0.008668
C95   C     C_R   0.011282 0.676068 0.474672 0.001950
C96   C     C_R   0.003658 0.679533 0.529146 0.008663
C97   C     C_R   0.508786 0.081840 0.449513 -0.083468
C98   C     C_R   0.524010 0.098507 0.559321 -0.138770
C99   C     C_R   0.008784 0.581841 0.449513 -0.083465
C100  C     C_R   0.024006 0.598494 0.559321 -0.138775
C101  C     C_R   0.517369 0.077001 0.398544 -0.087179
C102  C     C_R   0.508148 0.093385 0.609190 -0.111647
C103  C     C_R   0.017365 0.577004 0.398544 -0.087180
C104  C     C_R   0.008143 0.593374 0.609190 -0.111647
C105  C     C_R   0.739165 0.969766 0.375346 -0.034330
C106  C     C_R   0.252794 0.942188 0.632449 -0.039438
C107  C     C_R   0.239164 0.469768 0.375347 -0.034329
C108  C     C_R   0.752793 0.442187 0.632449 -0.039437
C109  C     C_R   0.710254 0.881136 0.391888 -0.153020
C110  C     C_R   0.297271 0.884388 0.609120 -0.140386
C111  C     C_R   0.210256 0.381137 0.391888 -0.153020
C112  C     C_R   0.797270 0.384387 0.609121 -0.140386
C113  C     C_R   0.705194 0.863714 0.442846 -0.107052
C114  C     C_R   0.293314 0.864381 0.558349 -0.092794
C115  C     C_R   0.205196 0.363716 0.442847 -0.107052
C116  C     C_R   0.793313 0.364379 0.558350 -0.092798
C117  C     C_R   0.717447 0.943409 0.476614 0.046184
C118  C     C_R   0.249148 0.912766 0.529511 0.024517
C119  C     C_R   0.217446 0.443412 0.476615 0.046184
C120  C     C_R   0.749148 0.412764 0.529512 0.024514
C121  C     C_R   0.735813 0.039137 0.458223 0.251586
C122  C     C_R   0.203044 0.967585 0.553942 0.229571
C123  C     C_R   0.235811 0.539141 0.458223 0.251588
C124  C     C_R   0.703044 0.467583 0.553942 0.229574
C125  C     C_R   0.760724 0.041257 0.410915 0.050315
C126  C     C_R   0.200522 0.967518 0.605682 0.053424
C127  C     C_R   0.260723 0.541261 0.410915 0.050313
C128  C     C_R   0.700521 0.467516 0.605682 0.053421
C129  C     C_R   0.781793 0.956385 0.550087 -0.110471
C130  C     C_R   0.192336 0.893733 0.451664 -0.126410
C131  C     C_R   0.281791 0.456393 0.550088 -0.110477
C132  C     C_R   0.692336 0.393729 0.451665 -0.126411
C133  C     C_R   0.721198 0.349679 0.321397 0.552150
C134  C     C_R   0.278397 0.348220 0.678330 0.558929
C135  C     C_R   0.221198 0.849680 0.321397 0.552151
C136  C     C_R   0.778397 0.848220 0.678330 0.558932
C137  C     C_R   0.795011 0.949566 0.600381 0.033150
C138  C     C_R   0.186572 0.915754 0.401950 0.026314
C139  C     C_R   0.295010 0.449571 0.600383 0.033143
C140  C     C_R   0.686571 0.415749 0.401951 0.026319
C141  C     C_R   0.701262 0.859516 0.611520 -0.154887
C142  C     C_R   0.292273 0.887558 0.392396 -0.122212
C143  C     C_R   0.201262 0.359515 0.611520 -0.154885
C144  C     C_R   0.792272 0.387557 0.392397 -0.122212
C145  C     C_R   0.684367 0.878190 0.561824 0.016849
C146  C     C_R   0.299636 0.906456 0.443871 0.091822
C147  C     C_R   0.184366 0.378191 0.561824 0.016853
C148  C     C_R   0.799635 0.406454 0.443871 0.091825
C149  C     C_R   0.726861 0.923388 0.530190 -0.014993
C150  C     C_R   0.248288 0.901679 0.474575 0.020890
C151  C     C_R   0.226860 0.423393 0.530190 -0.014992
C152  C     C_R   0.748287 0.401677 0.474576 0.020886
C153  C     C_R   0.756879 0.891778 0.630797 -0.025492
C154  C     C_R   0.235013 0.891123 0.371113 -0.016052
C155  C     C_R   0.256879 0.391779 0.630798 -0.025494
C156  C     C_R   0.735012 0.391121 0.371114 -0.016053
C157  C     C_R   0.554491 0.158601 0.321681 0.537437
C158  C     C_R   0.445811 0.159055 0.678642 0.546253
C159  C     C_R   0.054491 0.658601 0.321681 0.537437
C160  C     C_R   0.945812 0.659055 0.678642 0.546255
C161  C     C_R   0.731869 0.003501 0.323637 0.540476
C162  C     C_R   0.266813 0.998192 0.678581 0.563086
C163  C     C_R   0.231869 0.503502 0.323637 0.540476
C164  C     C_R   0.766812 0.498192 0.678582 0.563089
C165  C     C_R   0.511871 0.072119 0.102902 -0.096802
C166  C     C_R   0.490422 0.074717 0.896453 -0.122455
C167  C     C_R   0.011870 0.572119 0.102902 -0.096803
C168  C     C_R   0.990422 0.574717 0.896453 -0.122455
C169  C     C_R   0.502236 0.072972 0.051802 0.017928
C170  C     C_R   0.494736 0.074026 0.948003 0.023604
C171  C     C_R   0.002235 0.572972 0.051802 0.017928
C172  C     C_R   0.994736 0.574026 0.948003 0.023604
C173  C     C_R   0.495526 0.981061 0.973776 -0.055832
C174  C     C_R   0.497487 0.980690 0.025506 -0.045471
C175  C     C_R   0.995526 0.481061 0.973777 -0.055831
C176  C     C_R   0.997486 0.480690 0.025506 -0.045470
Cr1   Cr    Cr6+3 0.756570 0.170940 0.251190 1.104065
Cr2   Cr    Cr6+3 0.243430 0.170940 0.748810 1.098455
Cr3   Cr    Cr6+3 0.256570 0.670940 0.251190 1.104065
Cr4   Cr    Cr6+3 0.743430 0.670940 0.748810 1.098457
Cr5   Cr    Cr6+3 0.623740 0.299110 0.249580 1.045667
Cr6   Cr    Cr6+3 0.376260 0.299110 0.750420 1.060851
Cr7   Cr    Cr6+3 0.123740 0.799110 0.249580 1.045667
Cr8   Cr    Cr6+3 0.876260 0.799110 0.750420 1.060849
Cr9   Cr    Cr6+3 0.625990 0.036240 0.250480 1.046551
Cr10  Cr    Cr6+3 0.374010 0.036240 0.749520 1.040485
Cr11  Cr    Cr6+3 0.125990 0.536240 0.250480 1.046552
Cr12  Cr    Cr6+3 0.874010 0.536240 0.749520 1.040484
H1    H     H_    0.492555 0.002863 0.876392 0.121270
H2    H     H_    0.515216 0.998995 0.121746 0.169832
H3    H     H_    0.992554 0.502864 0.876392 0.121270
H4    H     H_    0.015216 0.498995 0.121746 0.169832
H5    H     H_    0.830979 0.993750 0.878528 0.166887
H6    H     H_    0.181297 0.006186 0.122496 0.128469
H7    H     H_    0.330979 0.493750 0.878528 0.166887
H8    H     H_    0.681297 0.506186 0.122496 0.128469
H9    H     H_    0.534471 0.331385 0.375519 0.183931
H10   H     H_    0.430253 0.317278 0.615953 0.170428
H11   H     H_    0.034486 0.831384 0.375522 0.183933
H12   H     H_    0.930281 0.817296 0.615960 0.170446
H13   H     H_    0.550349 0.037172 0.544010 0.153340
H14   H     H_    0.501022 0.011273 0.469250 0.155658
H15   H     H_    0.050336 0.537151 0.544009 0.153345
H16   H     H_    0.001015 0.511274 0.469248 0.155657
H17   H     H_    0.521221 0.027291 0.630972 0.150784
H18   H     H_    0.518098 0.002384 0.380849 0.164429
H19   H     H_    0.021206 0.527271 0.630969 0.150792
H20   H     H_    0.018089 0.502388 0.380847 0.164428
H21   H     H_    0.521041 0.340342 0.465251 0.167812
H22   H     H_    0.454859 0.323181 0.528953 0.144312
H23   H     H_    0.021060 0.840339 0.465254 0.167805
H24   H     H_    0.954888 0.823199 0.528960 0.144326
H25   H     H_    0.694026 0.824378 0.365613 0.146351
H26   H     H_    0.336378 0.858988 0.629546 0.161683
H27   H     H_    0.194029 0.324378 0.365613 0.146350
H28   H     H_    0.836378 0.358987 0.629547 0.161682
H29   H     H_    0.814242 0.992294 0.526177 0.188377
H30   H     H_    0.152237 0.884449 0.473087 0.186492
H31   H     H_    0.314240 0.492306 0.526178 0.188378
H32   H     H_    0.652236 0.384444 0.473088 0.186497
H33   H     H_    0.493674 0.908737 0.953975 0.114589
H34   H     H_    0.497314 0.908181 0.044958 0.156113
H35   H     H_    0.993674 0.408737 0.953975 0.114590
H36   H     H_    0.997314 0.408181 0.044958 0.156113
H37   H     H_    0.691056 0.789633 0.455623 0.127693
H38   H     H_    0.327126 0.817325 0.541180 0.185534
H39   H     H_    0.191059 0.289635 0.455624 0.127691
H40   H     H_    0.827126 0.317324 0.541181 0.185534
H41   H     H_    0.671040 0.818429 0.635431 0.185645
H42   H     H_    0.330510 0.876094 0.368782 0.157913
H43   H     H_    0.171040 0.318426 0.635430 0.185647
H44   H     H_    0.830510 0.376095 0.368782 0.157911
H45   H     H_    0.469042 0.330533 0.877831 0.131355
H46   H     H_    0.526506 0.329123 0.123624 0.128160
H47   H     H_    0.969041 0.830533 0.877831 0.131355
H48   H     H_    0.026506 0.829123 0.123624 0.128160
H49   H     H_    0.488035 0.426335 0.956086 0.114869
H50   H     H_    0.505077 0.425637 0.046423 0.113920
H51   H     H_    0.988035 0.926335 0.956086 0.114869
H52   H     H_    0.005077 0.925637 0.046423 0.113921
H53   H     H_    0.836466 0.964495 0.132860 0.149520
H54   H     H_    0.166481 0.005711 0.873651 0.179543
H55   H     H_    0.336466 0.464495 0.132860 0.149520
H56   H     H_    0.666481 0.505711 0.873651 0.179544
H57   H     H_    0.699279 0.761512 0.971502 0.164700
H58   H     H_    0.285300 0.738049 0.027681 0.177812
H59   H     H_    0.199279 0.261512 0.971502 0.164700
H60   H     H_    0.785300 0.238049 0.027681 0.177812
H61   H     H_    0.848108 0.919555 0.045277 0.133352
H62   H     H_    0.156332 0.958418 0.959808 0.142459
H63   H     H_    0.348107 0.419555 0.045276 0.133352
H64   H     H_    0.656332 0.458418 0.959808 0.142459
H65   H     H_    0.823707 0.012011 0.968552 0.159684
H66   H     H_    0.191506 0.026352 0.032850 0.127173
H67   H     H_    0.323707 0.512011 0.968552 0.159684
H68   H     H_    0.691506 0.526352 0.032850 0.127172
O1    O     O_R   0.769900 0.064540 0.196060 -0.502373
O2    O     O_R   0.230100 0.064540 0.803940 -0.507008
O3    O     O_R   0.269900 0.564540 0.196060 -0.502374
O4    O     O_R   0.730100 0.564540 0.803940 -0.507007
O5    O     O_R   0.574760 0.239320 0.300850 -0.504797
O6    O     O_R   0.425240 0.239320 0.699150 -0.501677
O7    O     O_R   0.074760 0.739320 0.300850 -0.504799
O8    O     O_R   0.925240 0.739320 0.699150 -0.501680
O9    O     O_R   0.566290 0.069580 0.305400 -0.515235
O10   O     O_R   0.433710 0.069580 0.694600 -0.507780
O11   O     O_R   0.066290 0.569580 0.305400 -0.515233
O12   O     O_R   0.933710 0.569580 0.694600 -0.507783
O13   O     O_R   0.680760 0.993330 0.302620 -0.510043
O14   O     O_R   0.319240 0.993330 0.697380 -0.500860
O15   O     O_R   0.180760 0.493330 0.302620 -0.510042
O16   O     O_R   0.819240 0.493330 0.697380 -0.500860
O17   O     O_3   0.668770 0.168760 0.250420 -0.269581
O18   O     O_3   0.331230 0.168760 0.749580 -0.270962
O19   O     O_3   0.168770 0.668760 0.250420 -0.269582
O20   O     O_3   0.831230 0.668760 0.749580 -0.270961
O21   O     O_R   0.750800 0.274080 0.199250 -0.462269
O22   O     O_R   0.249200 0.274080 0.800750 -0.463162
O23   O     O_R   0.250800 0.774080 0.199250 -0.462269
O24   O     O_R   0.749200 0.774080 0.800750 -0.463162
O25   O     O_R   0.669990 0.371670 0.194150 -0.520124
O26   O     O_R   0.330010 0.371670 0.805850 -0.516965
O27   O     O_R   0.169990 0.871670 0.194150 -0.520123
O28   O     O_R   0.830010 0.871670 0.805850 -0.516966
O29   O     O_R   0.574600 0.238480 0.197800 -0.505161
O30   O     O_R   0.425400 0.238480 0.802200 -0.498832
O31   O     O_R   0.074600 0.738480 0.197800 -0.505159
O32   O     O_R   0.925400 0.738480 0.802200 -0.498833
O33   O     O_R   0.566130 0.068680 0.194240 -0.488538
O34   O     O_R   0.433870 0.068680 0.805760 -0.540594
O35   O     O_R   0.066130 0.568680 0.194240 -0.488539
O36   O     O_R   0.933870 0.568680 0.805760 -0.540594
O37   O     O_R   0.680610 0.992490 0.199570 -0.461480
O38   O     O_R   0.319390 0.992490 0.800430 -0.477544
O39   O     O_R   0.180610 0.492490 0.199570 -0.461480
O40   O     O_R   0.819390 0.492490 0.800430 -0.477545
O41   O     O_R   0.770060 0.065440 0.307230 -0.466139
O42   O     O_R   0.229940 0.065440 0.692770 -0.484386
O43   O     O_R   0.270060 0.565440 0.307230 -0.466137
O44   O     O_R   0.729940 0.565440 0.692770 -0.484383
O45   O     O_R   0.750960 0.274920 0.302300 -0.493966
O46   O     O_R   0.249040 0.274920 0.697700 -0.505196
O47   O     O_R   0.250960 0.774920 0.302300 -0.493966
O48   O     O_R   0.749040 0.774920 0.697700 -0.505196
O49   O     O_R   0.670160 0.372580 0.305320 -0.474008
O50   O     O_R   0.329840 0.372580 0.694680 -0.472832
O51   O     O_R   0.170160 0.872580 0.305320 -0.474009
O52   O     O_R   0.829840 0.872580 0.694680 -0.472829
C177  C     C_2   0.641151 0.890080 0.022704 0.589702
O53   O     O_2   0.630505 0.953861 0.990639 -0.510183
O54   O     O_R   0.602970 0.806858 0.029402 -0.718534
H69   H     H_    0.570266 0.803313 0.003232 0.330745
C178  C     C_2   0.348021 0.811275 0.963542 0.544234
O55   O     O_2   0.376203 0.858684 0.995196 -0.550454
O56   O     O_R   0.365376 0.712341 0.949891 -0.696181
H70   H     H_    0.401860 0.688046 0.969020 0.329175
C179  C     C_2   0.141151 0.390079 0.022704 0.589701
O57   O     O_2   0.130504 0.453861 0.990640 -0.510183
O58   O     O_R   0.102970 0.306857 0.029402 -0.718534
H71   H     H_    0.070266 0.303312 0.003232 0.330745
C180  C     C_2   0.848021 0.311275 0.963542 0.544234
O59   O     O_2   0.876203 0.358684 0.995196 -0.550454
O60   O     O_R   0.865376 0.212341 0.949891 -0.696181
H72   H     H_    0.901860 0.188047 0.969020 0.329175
O61   O     O_3   0.634873 0.905160 0.124796 -0.534475
C181  C     C_3   0.628911 0.807601 0.146641 -0.075053
H73   H     H_    0.634433 0.745078 0.118854 0.140604
H74   H     H_    0.583411 0.801118 0.162003 0.145579
H75   H     H_    0.661197 0.796887 0.177860 0.106223
O62   O     O_3   0.339797 0.829580 0.858268 -0.533384
C182  C     C_3   0.396552 0.874158 0.865090 -0.051403
H76   H     H_    0.425081 0.824359 0.888640 0.140653
H77   H     H_    0.394843 0.952709 0.881267 0.108291
H78   H     H_    0.418417 0.878487 0.828426 0.165140
O63   O     O_3   0.134873 0.405159 0.124796 -0.534474
C183  C     C_3   0.128912 0.307600 0.146643 -0.075054
H79   H     H_    0.134426 0.245078 0.118855 0.140614
H80   H     H_    0.083416 0.301122 0.162012 0.145576
H81   H     H_    0.161205 0.296882 0.177857 0.106215
O64   O     O_3   0.839797 0.329580 0.858268 -0.533384
C184  C     C_3   0.896552 0.374158 0.865090 -0.051403
H82   H     H_    0.925081 0.324360 0.888640 0.140653
H83   H     H_    0.894842 0.452710 0.881267 0.108292
H84   H     H_    0.918417 0.378486 0.828426 0.165140
C185  C     C_2   0.847646 0.007103 0.619384 0.595310
O65   O     O_2   0.893400 0.010095 0.595134 -0.530398
O66   O     O_R   0.843671 0.062962 0.663657 -0.659847
H85   H     H_    0.881966 0.100494 0.672261 0.341033
C186  C     C_2   0.134795 0.979770 0.385865 0.593843
O67   O     O_2   0.089532 0.982294 0.410739 -0.534862
O68   O     O_R   0.139997 0.045323 0.345106 -0.678629
H86   H     H_    0.102611 0.087194 0.338875 0.337377
C187  C     C_2   0.347643 0.507109 0.619386 0.595308
O69   O     O_2   0.393397 0.510104 0.595136 -0.530389
O70   O     O_R   0.343667 0.562964 0.663659 -0.659845
H87   H     H_    0.381962 0.600497 0.672265 0.341034
C188  C     C_2   0.634792 0.479762 0.385866 0.593851
O71   O     O_2   0.589528 0.482280 0.410740 -0.534866
O72   O     O_R   0.639993 0.545318 0.345108 -0.678629
H88   H     H_    0.602606 0.587187 0.338877 0.337376
C189  C     C_2   0.622872 0.850057 0.545053 0.527846
O73   O     O_2   0.591627 0.796688 0.571476 -0.488175
O74   O     O_R   0.599740 0.885287 0.499831 -0.738171
H89   H     H_    0.558149 0.858431 0.492650 0.349933
C190  C     C_2   0.359423 0.935501 0.463239 0.558589
O75   O     O_2   0.404232 0.902698 0.443225 -0.553188
O76   O     O_R   0.364616 0.004410 0.502947 -0.710576
H90   H     H_    0.407434 0.016890 0.513518 0.339372
C191  C     C_2   0.122872 0.350056 0.545053 0.527848
O77   O     O_2   0.091628 0.296687 0.571476 -0.488177
O78   O     O_R   0.099740 0.385284 0.499830 -0.738170
H91   H     H_    0.058150 0.358429 0.492649 0.349933
C192  C     C_2   0.859422 0.435500 0.463240 0.558589
O79   O     O_2   0.904232 0.402697 0.443226 -0.553193
O80   O     O_R   0.864614 0.504409 0.502948 -0.710574
H92   H     H_    0.907433 0.516890 0.513519 0.339370
O81   O     O_3   0.741124 0.123416 0.489415 -0.537788
C193  C     C_3   0.683424 0.155920 0.502757 -0.088733
H93   H     H_    0.659387 0.096812 0.524354 0.139372
H94   H     H_    0.656680 0.177918 0.469369 0.121705
H95   H     H_    0.687430 0.224113 0.527127 0.143680
O82   O     O_3   0.159068 0.019055 0.527775 -0.534483
C194  C     C_3   0.181284 0.115446 0.513975 -0.040379
H96   H     H_    0.217850 0.108133 0.486634 0.108856
H97   H     H_    0.196761 0.160239 0.546914 0.137582
H98   H     H_    0.144371 0.158227 0.495929 0.188761
O83   O     O_3   0.241119 0.623421 0.489415 -0.537789
C195  C     C_3   0.183418 0.655923 0.502754 -0.088735
H99   H     H_    0.159380 0.596812 0.524350 0.139380
H100  H     H_    0.156674 0.677920 0.469366 0.121705
H101  H     H_    0.187422 0.724116 0.527125 0.143680
O84   O     O_3   0.659067 0.519052 0.527776 -0.534479
C196  C     C_3   0.681283 0.615444 0.513976 -0.040380
H102  H     H_    0.717850 0.608132 0.486635 0.108858
H103  H     H_    0.696759 0.660237 0.546916 0.137584
H104  H     H_    0.644370 0.658224 0.495929 0.188757
C197  C     C_2   0.816168 0.102035 0.403332 0.611584
O85   O     O_2   0.852665 0.074448 0.372627 -0.489124
O86   O     O_R   0.830381 0.183308 0.435085 -0.654202
H105  H     H_    0.871446 0.212170 0.428563 0.360764
C198  C     C_2   0.143904 0.995044 0.631079 0.627575
O87   O     O_2   0.130871 0.952137 0.669821 -0.508694
O88   O     O_R   0.105162 0.068075 0.610781 -0.609244
H106  H     H_    0.068355 0.079011 0.631657 0.354281
C199  C     C_2   0.316166 0.602039 0.403333 0.611578
O89   O     O_2   0.352663 0.574455 0.372627 -0.489125
O90   O     O_R   0.330380 0.683308 0.435088 -0.654205
H107  H     H_    0.371445 0.712170 0.428567 0.360764
C200  C     C_2   0.643903 0.495040 0.631080 0.627573
O91   O     O_2   0.630873 0.452139 0.669824 -0.508692
O92   O     O_R   0.605158 0.568063 0.610780 -0.609240
H108  H     H_    0.568351 0.578999 0.631656 0.354282
C201  C     C_2   0.666667 0.769823 0.876536 0.603171
O93   O     O_2   0.644591 0.804193 0.838329 -0.495174
O94   O     O_R   0.638563 0.689096 0.900961 -0.736808
H109  H     H_    0.601413 0.664520 0.882785 0.330439
C202  C     C_2   0.326067 0.746445 0.120383 0.615018
O95   O     O_2   0.353144 0.778160 0.156988 -0.498355
O96   O     O_R   0.346620 0.659168 0.095703 -0.717886
H110  H     H_    0.383537 0.628990 0.112037 0.328684
C203  C     C_2   0.166667 0.269824 0.876536 0.603170
O97   O     O_2   0.144591 0.304193 0.838328 -0.495173
O98   O     O_R   0.138563 0.189096 0.900961 -0.736808
H111  H     H_    0.101413 0.164521 0.882784 0.330439
C204  C     C_2   0.826067 0.246444 0.120383 0.615018
O99   O     O_2   0.853144 0.278160 0.156988 -0.498355
O100  O     O_R   0.846620 0.159168 0.095703 -0.717886
H112  H     H_    0.883537 0.128990 0.112037 0.328684

loop_
_geom_bond_atom_site_label_1
_geom_bond_atom_site_label_2
_ccdc_geom_bond_type
C99   C103  A    
O100  H112  S    
C188  O71   D    
C158  O10   A    
C37   C69   S    
C99   H16   S    
C204  O99   D    
C142  C146  A    
C77   C101  A    
C19   C20   A    
C174  H34   S    
C97   H14   S    
C7    C168  A    
C47   O35   A    
C38   C70   S    
C90   O38   A    
C108  C164  S    
C41   C177  S    
O82   C194  S    
C128  C200  S    
Cr12  O12   S    
C111  H27   S    
C82   H10   S    
C55   C59   A    
C197  O86   S    
C95   C99   A    
Cr6   O6    S    
C29   C33   A    
C100  C104  A    
C3    C74   S    
C9    C13   A    
Cr2   O2    S    
C92   O4    A    
C146  C150  A    
C131  C151  A    
C12   C16   A    
C56   C72   A    
C65   H65   S    
C169  C174  A    
C181  H73   S    
C162  O42   A    
C172  C175  A    
C141  C145  A    
C107  C111  A    
C138  C154  A    
C177  O54   S    
C6    C165  A    
C53   C69   A    
C201  O94   S    
C21   C22   A    
C41   C49   A    
C187  O70   S    
C63   C67   A    
C18   C170  A    
C25   C29   A    
O62   C182  S    
C27   C31   A    
O60   H72   S    
C46   O30   A    
C28   C32   A    
Cr9   O33   S    
O64   C184  S    
C62   C66   A    
C167  C171  A    
Cr1   O21   S    
C98   C102  A    
C58   C202  S    
C60   C76   A    
Cr6   O50   S    
C115  H39   S    
C56   H60   S    
Cr2   O22   S    
C113  H37   S    
C134  C155  S    
C54   C70   A    
Cr3   O19   S    
C68   C72   A    
C181  H75   S    
C165  H2    S    
C137  C153  A    
C34   H62   S    
C177  O53   D    
C140  C156  A    
C20   C172  A    
C116  H40   S    
C49   O61   S    
C132  C152  A    
C62   H6    S    
C194  H96   S    
C90   O2    A    
C196  H102  S    
C92   O40   A    
C10   H45   S    
C25   C89   S    
C84   C88   A    
C183  H79   S    
C85   H21   S    
Cr6   O26   S    
O80   H92   S    
Cr10  O18   S    
C119  C123  A    
C26   C90   S    
C5    C46   S    
Cr4   O48   S    
C105  C125  A    
Cr2   O46   S    
C7    C48   S    
Cr3   O43   S    
C8    C47   S    
C107  C127  A    
C199  O89   D    
C1    O25   A    
C136  C153  S    
C66   C70   A    
Cr8   O8    S    
C124  O84   S    
O63   C183  S    
C61   C65   A    
C129  C137  A    
C180  O59   D    
C88   H24   S    
O72   H88   S    
C45   O33   A    
C117  C149  S    
C200  O91   D    
C190  O75   D    
C55   C71   A    
C2    C75   S    
C186  O67   D    
C23   H52   S    
O88   H106  S    
O96   H110  S    
C139  C187  S    
C89   O37   A    
C6    C9    A    
Cr5   O17   S    
C198  O87   D    
C178  O55   D    
Cr9   O9    S    
C140  C188  S    
C121  C125  A    
C64   C68   A    
C110  H26   S    
C100  H15   S    
C142  H42   S    
O86   H105  S    
C179  O58   S    
Cr8   O52   S    
C104  H19   S    
C57   C73   A    
C130  H30   S    
C68   H68   S    
C123  O83   S    
C143  C155  A    
C78   C158  S    
C195  H99   S    
C158  O6    A    
C87   C95   A    
C130  C150  A    
C23   C24   A    
C27   C91   S    
C110  C114  A    
C146  C190  S    
C22   H49   S    
C44   C52   A    
C54   H58   S    
C32   H56   S    
C79   C103  A    
C11   C15   A    
C183  H81   S    
C202  O96   S    
C27   C51   A    
C184  H83   S    
C7    C12   A    
C196  H104  S    
C30   C34   A    
Cr11  O35   S    
C28   C92   S    
C10   C14   A    
Cr3   O3    S    
C142  C154  A    
C116  C120  A    
C163  O15   A    
C132  H32   S    
C144  C156  A    
C147  C151  A    
C129  C149  A    
C136  O52   A    
C123  C127  A    
C139  C155  A    
C133  O45   A    
C17   C18   A    
C5    C166  A    
C108  C128  A    
C4    C73   S    
Cr12  O40   S    
C42   C50   A    
C113  C117  A    
C148  C192  S    
C157  O5    A    
C26   C30   A    
C115  C119  A    
C105  C161  S    
Cr9   O37   S    
C186  O68   S    
Cr10  O34   S    
C61   H5    S    
C112  C116  A    
Cr11  O39   S    
C58   C74   A    
C52   O64   S    
O70   H87   S    
C105  C109  A    
C175  H35   S    
C89   O1    A    
C40   C72   S    
C138  C186  S    
C1    C76   S    
C87   H23   S    
C148  C152  A    
C107  C163  S    
C2    O22   A    
C160  O12   A    
C171  C176  A    
C203  O98   S    
C124  C128  A    
C166  H1    S    
C14   C22   A    
C193  H93   S    
C194  H98   S    
C197  O85   D    
C134  O50   A    
C141  C153  A    
C63   C75   A    
Cr7   O7    S    
C195  H101  S    
C64   H8    S    
C4    O28   A    
C112  H28   S    
C37   C41   A    
C182  H78   S    
C91   O3    A    
C101  H18   S    
C40   C44   A    
C159  O7    A    
C30   H54   S    
C160  O8    A    
C181  H74   S    
C143  H43   S    
C81   C85   A    
C191  O78   S    
Cr11  O19   S    
C122  O82   S    
C12   H47   S    
C83   C87   A    
C88   C96   A    
C201  O93   D    
C6    C45   S    
C93   C97   A    
C78   C102  A    
C133  C156  S    
C98   H13   S    
C80   C84   A    
C173  H33   S    
C187  O69   D    
Cr1   O17   S    
C2    O26   A    
C15   C19   A    
C189  O74   S    
C203  O97   D    
C135  C154  S    
C80   C104  A    
C31   H55   S    
C192  O80   S    
C81   H9    S    
C80   C160  S    
C94   C98   A    
C141  H41   S    
O78   H91   S    
C45   O29   A    
C43   C179  S    
C118  C150  S    
C57   C201  S    
C129  H29   S    
Cr12  O36   S    
Cr1   O41   S    
C66   H66   S    
O74   H89   S    
C185  O66   S    
C176  H36   S    
Cr5   O29   S    
Cr9   O13   S    
Cr6   O18   S    
Cr10  O10   S    
Cr7   O31   S    
Cr11  O15   S    
O56   H70   S    
C188  O72   S    
C165  C169  A    
C204  O100  S    
Cr7   O51   S    
C183  H80   S    
O66   H85   S    
C53   C57   A    
C61   C73   A    
C82   C86   A    
C33   C37   A    
C56   C60   A    
Cr7   O27   S    
C182  H76   S    
C48   O36   A    
C8    C167  A    
C114  H38   S    
C77   C81   A    
C35   H63   S    
C33   H61   S    
C24   H51   S    
C60   C204  S    
C50   O62   S    
C63   H7    S    
C193  H94   S    
C32   C36   A    
C137  C185  S    
C11   H48   S    
C9    H46   S    
C144  H44   S    
C86   H22   S    
C125  C197  S    
O84   C196  S    
C135  O47   A    
Cr4   O24   S    
C136  O48   A    
C67   H67   S    
C132  C140  A    
C157  O9    A    
C106  C126  A    
C121  O81   S    
C59   C203  S    
C161  O13   A    
C193  H95   S    
C199  O90   S    
C47   O31   A    
C79   C83   A    
C48   O32   A    
C43   C51   A    
C44   C180  S    
C65   C69   A    
C91   O39   A    
C126  C198  S    
C67   C71   A    
C106  C162  S    
O61   C181  S    
Cr10  O38   S    
C25   C49   A    
C178  O56   S    
O58   H71   S    
Cr4   O4    S    
C108  C112  A    
C168  C172  A    
Cr5   O5    S    
C195  H100  S    
O92   H108  S    
C62   C74   A    
Cr1   O1    S    
C145  C149  A    
C170  C173  A    
Cr8   O20   S    
O54   H69   S    
C93   C94   S    
C14   C18   A    
C35   C39   A    
C95   C96   S    
C144  C148  A    
C161  O41   A    
C202  O95   D    
C135  O51   A    
C26   C50   A    
C173  C174  A    
C84   H12   S    
C143  C147  A    
C167  H4    S    
C196  H103  S    
C168  H3    S    
C13   C17   A    
C184  H82   S    
C19   C171  A    
C38   C42   A    
C109  H25   S    
C190  O76   S    
C118  C122  A    
C17   C169  A    
C159  O11   A    
C96   C100  A    
C163  O43   A    
C42   C178  S    
C131  H31   S    
C46   O34   A    
C117  C121  A    
C86   C94   A    
C106  C110  A    
C3    O23   A    
C175  C176  A    
C180  O60   S    
Cr5   O49   S    
O90   H107  S    
C200  O92   S    
C16   C20   A    
Cr2   O18   S    
C15   C23   A    
C21   H50   S    
C164  O16   A    
Cr3   O23   S    
C16   C24   A    
C39   C71   S    
C127  C199  S    
C85   C93   A    
C198  O88   S    
C119  C151  S    
C51   O63   S    
C120  C152  S    
C147  C191  S    
C13   C21   A    
C36   C40   A    
C131  C139  A    
C103  H20   S    
O98   H111  S    
C39   C43   A    
Cr12  O20   S    
C122  C126  A    
C194  H97   S    
Cr5   O25   S    
Cr9   O17   S    
Cr6   O30   S    
O76   H90   S    
Cr10  O14   S    
Cr7   O19   S    
O94   H109  S    
Cr11  O11   S    
Cr4   O44   S    
Cr1   O45   S    
C1    O21   A    
C64   C76   A    
Cr2   O42   S    
Cr12  O16   S    
Cr3   O47   S    
C109  C113  A    
C182  H77   S    
C133  O49   A    
O81   C193  S    
C114  C118  A    
C83   H11   S    
C59   C75   A    
C191  O77   D    
C54   C58   A    
C184  H84   S    
C162  O14   A    
C34   C38   A    
C78   C82   A    
C111  C115  A    
C145  C189  S    
C189  O73   D    
C5    C10   A    
Cr4   O20   S    
Cr8   O28   S    
C192  O79   D    
C28   C52   A    
O68   H86   S    
C8    C11   A    
C4    O24   A    
C36   H64   S    
C79   C159  S    
C3    O27   A    
C166  C170  A    
C31   C35   A    
C179  O57   D    
C102  H17   S    
C53   H57   S    
C164  O44   A    
C120  C124  A    
Cr8   O32   S    
C29   H53   S    
C55   H59   S    
C134  O46   A    
C185  O65   D    
C97   C101  A    
O83   C195  S    
C77   C157  S    
C130  C138  A    
