data_str_m3_o38_o41_f0_fof.sym.62
_audit_creation_date              2012-10-26T21:33:23-0400
_audit_creation_method            fapswitch 2.2
_symmetry_space_group_name_H-M    P1
_symmetry_Int_Tables_number       1
_space_group_crystal_system       triclinic
_cell_length_a                    28.289494
_cell_length_b                    18.489169
_cell_length_c                    17.005558
_cell_angle_alpha                 89.863083
_cell_angle_beta                  60.745949
_cell_angle_gamma                 90.098722
_cell_volume                      7760.25665733

loop_
_atom_site_label
_atom_site_type_symbol
_atom_type_description
_atom_site_fract_x
_atom_site_fract_y
_atom_site_fract_z
_atom_type_partial_charge
C1    C     C_R   0.701412 0.267673 0.676169 0.903641
C2    C     C_R   0.083015 0.499786 0.549720 0.065805
C3    C     C_R   0.190296 0.212042 0.905712 0.063791
C4    C     C_R   0.070600 0.103639 0.937298 0.925462
C5    C     C_R   0.928233 0.897447 0.063634 0.902896
C6    C     C_R   0.923853 0.097068 0.067637 0.919070
C7    C     C_R   0.071409 0.897258 0.936701 0.911992
C8    C     C_R   0.571766 0.602553 0.936367 0.902939
C9    C     C_R   0.429400 0.396361 0.062702 0.925421
C10   C     C_R   0.428591 0.602742 0.063299 0.911986
C11   C     C_R   0.576130 0.402905 0.932380 0.919033
C12   C     C_R   0.540270 0.131138 0.523364 0.107503
C13   C     C_R   0.416984 0.000215 0.450282 0.065811
C14   C     C_R   0.462803 0.868954 0.464491 0.108868
C15   C     C_R   0.463008 0.131375 0.464602 0.106993
C16   C     C_R   0.540088 0.868772 0.523190 0.106399
C17   C     C_R   0.037197 0.631047 0.535509 0.108867
C18   C     C_R   0.959728 0.368862 0.476642 0.107505
C19   C     C_R   0.959912 0.631228 0.476809 0.106399
C20   C     C_R   0.036990 0.368625 0.535406 0.106991
C21   C     C_R   0.520444 0.196750 0.509528 -0.208058
C22   C     C_R   0.482817 0.803359 0.477850 -0.208334
C23   C     C_R   0.483250 0.196871 0.477818 -0.221564
C24   C     C_R   0.585336 0.999886 0.539859 0.063575
C25   C     C_R   0.520037 0.803261 0.509499 -0.208560
C26   C     C_R   0.017184 0.696641 0.522148 -0.208334
C27   C     C_R   0.979553 0.303250 0.490481 -0.208053
C28   C     C_R   0.979964 0.696739 0.490499 -0.208558
C29   C     C_R   0.016747 0.303129 0.522192 -0.221569
C30   C     C_R   0.481803 0.065665 0.480160 0.035378
C31   C     C_R   0.521714 0.934469 0.506849 0.030920
C32   C     C_R   0.521829 0.065560 0.506871 0.030465
C33   C     C_R   0.481680 0.934564 0.480158 0.030071
C34   C     C_R   0.978286 0.565531 0.493152 0.030919
C35   C     C_R   0.077028 0.369188 0.560931 -0.263400
C36   C     C_R   0.018195 0.434335 0.519846 0.035370
C37   C     C_R   0.018319 0.565436 0.519843 0.030072
C38   C     C_R   0.978169 0.434441 0.493134 0.030468
C39   C     C_R   0.957658 0.500036 0.480607 -0.054344
C40   C     C_R   0.039057 0.499840 0.531771 -0.053930
C41   C     C_R   0.460942 0.000160 0.468232 -0.053924
C42   C     C_R   0.542341 0.999964 0.519396 -0.054345
C43   C     C_R   0.892811 0.434016 0.451036 0.058156
C44   C     C_R   0.105576 0.565923 0.556891 0.056038
C45   C     C_R   0.105570 0.433632 0.556693 0.059624
C46   C     C_R   0.920962 0.630684 0.448900 -0.245104
C47   C     C_R   0.892778 0.566264 0.451343 0.057601
C48   C     C_R   0.394423 0.934077 0.443110 0.056036
C49   C     C_R   0.607188 0.065984 0.548966 0.058156
C50   C     C_R   0.607222 0.933736 0.548655 0.057599
C51   C     C_R   0.394428 0.066368 0.443311 0.059630
C52   C     C_R   0.843002 0.435063 0.447903 -0.115743
C53   C     C_R   0.156539 0.564990 0.555860 -0.113529
C54   C     C_R   0.156546 0.434710 0.555743 -0.113223
C55   C     C_R   0.842964 0.565149 0.448124 -0.112197
C56   C     C_R   0.343460 0.935010 0.444140 -0.113531
C57   C     C_R   0.920956 0.369641 0.448370 -0.245908
C58   C     C_R   0.656998 0.064937 0.552097 -0.115739
C59   C     C_R   0.657037 0.934852 0.551873 -0.112196
C60   C     C_R   0.343454 0.065291 0.444258 -0.113230
C61   C     C_R   0.820700 0.500089 0.442583 -0.310808
C62   C     C_R   0.179446 0.499878 0.559477 -0.331049
C63   C     C_R   0.320555 0.000122 0.440522 -0.331055
C64   C     C_R   0.679301 0.999911 0.557414 -0.310817
C65   C     C_R   0.641508 0.191330 0.070914 0.128681
C66   C     C_R   0.602461 0.205193 0.160947 -0.170090
C67   C     C_R   0.550151 0.176601 0.196835 -0.127079
C68   C     C_R   0.077081 0.630297 0.561332 -0.248642
C69   C     C_R   0.536382 0.133728 0.143470 -0.109886
C70   C     C_R   0.574936 0.119354 0.054092 -0.140361
C71   C     C_R   0.627293 0.147857 0.017935 -0.126109
C72   C     C_R   0.270820 0.857784 0.101732 0.107986
C73   C     C_R   0.228318 0.877874 0.186422 -0.185324
C74   C     C_R   0.239804 0.909013 0.250028 -0.079368
C75   C     C_R   0.293524 0.921974 0.228497 -0.090426
C76   C     C_R   0.335653 0.907636 0.141823 -0.150353
C77   C     C_R   0.324432 0.875647 0.078396 -0.126492
C78   C     C_R   0.249793 0.147438 0.128574 0.099501
C79   C     C_R   0.579039 0.869317 0.551098 -0.245107
C80   C     C_R   0.297433 0.123507 0.126825 -0.130143
C81   C     C_R   0.294798 0.091539 0.203379 -0.121463
C82   C     C_R   0.244605 0.080270 0.280390 -0.059582
C83   C     C_R   0.196886 0.098598 0.279935 -0.135365
C84   C     C_R   0.199359 0.132174 0.204327 -0.180769
C85   C     C_R   0.720021 0.873265 0.928315 0.109623
C86   C     C_R   0.760272 0.921166 0.868486 -0.169791
C87   C     C_R   0.746270 0.980932 0.833677 -0.128909
C88   C     C_R   0.692072 0.993494 0.858504 -0.116261
C89   C     C_R   0.651691 0.946848 0.919086 -0.131037
C90   C     C_R   0.422970 0.130813 0.439076 -0.263421
C91   C     C_R   0.665482 0.887102 0.954205 -0.127488
C92   C     C_R   0.229203 0.642222 0.898237 0.107978
C93   C     C_R   0.175598 0.624356 0.921537 -0.126494
C94   C     C_R   0.164398 0.592368 0.858086 -0.150376
C95   C     C_R   0.206542 0.578032 0.771424 -0.090357
C96   C     C_R   0.260255 0.590994 0.749930 -0.079394
C97   C     C_R   0.271720 0.622135 0.813559 -0.185337
C98   C     C_R   0.858402 0.308504 0.929162 0.128633
C99   C     C_R   0.872605 0.351988 0.982149 -0.126118
C100  C     C_R   0.924952 0.380527 0.945992 -0.140334
C101  C     C_R   0.422919 0.869703 0.438668 -0.248639
C102  C     C_R   0.963506 0.366185 0.856605 -0.109885
C103  C     C_R   0.949749 0.323304 0.803230 -0.127073
C104  C     C_R   0.897451 0.294671 0.839121 -0.170072
C105  C     C_R   0.779979 0.626732 0.071678 0.109626
C106  C     C_R   0.834521 0.612882 0.045756 -0.127497
C107  C     C_R   0.848318 0.553117 0.080838 -0.131025
C108  C     C_R   0.807940 0.506468 0.141420 -0.116213
C109  C     C_R   0.753737 0.519048 0.166287 -0.128906
C110  C     C_R   0.739730 0.578831 0.131512 -0.169801
C111  C     C_R   0.250216 0.352561 0.871415 0.099500
C112  C     C_R   0.296235 0.726762 0.325249 0.912939
C113  C     C_R   0.579042 0.130359 0.551635 -0.245909
C114  C     C_R   0.300654 0.367818 0.795668 -0.180761
C115  C     C_R   0.303137 0.401392 0.720052 -0.135385
C116  C     C_R   0.255423 0.419726 0.719583 -0.059570
C117  C     C_R   0.205226 0.408465 0.796587 -0.121452
C118  C     C_R   0.202581 0.376497 0.873150 -0.130158
C119  C     C_3   0.641487 0.373886 0.027247 -0.868062
C120  C     C_3   0.391020 0.680635 0.945414 -0.902280
C121  C     C_3   0.395033 0.312225 0.944944 -0.911245
C122  C     C_3   0.607915 0.679234 0.056491 -0.906527
C123  C     C_3   0.108984 0.819369 0.054584 -0.902268
C124  C     C_R   0.722649 0.259296 0.949828 0.037027
C125  C     C_3   0.858366 0.125855 0.972945 -0.868087
C126  C     C_3   0.892082 0.820771 0.943511 -0.906528
C127  C     C_3   0.104966 0.187777 0.055056 -0.911241
C128  C     C_R   0.277567 0.730545 0.047569 0.052274
C129  C     C_R   0.278458 0.267518 0.047128 0.054161
C130  C     C_R   0.719230 0.738410 0.955414 0.047232
C131  C     C_R   0.222436 0.769458 0.952428 0.052277
C132  C     C_R   0.777265 0.240525 0.050243 0.037006
C133  C     C_R   0.780767 0.761589 0.044590 0.047232
C134  C     C_R   0.221541 0.232485 0.952874 0.054163
C135  C     C_R   0.697182 0.221389 0.033083 0.022534
C136  C     C_R   0.296072 0.273803 0.325480 0.913179
C137  C     C_R   0.260660 0.802755 0.048944 0.009067
C138  C     C_R   0.252371 0.199416 0.060260 0.012341
C139  C     C_R   0.735196 0.809249 0.963786 0.005938
C140  C     C_R   0.239347 0.697249 0.951048 0.009075
C141  C     C_R   0.802734 0.278424 0.966985 0.022627
C142  C     C_R   0.764801 0.690750 0.036219 0.005930
C143  C     C_R   0.247629 0.300587 0.939739 0.012344
C144  C     C_R   0.724840 0.212855 0.082242 -0.251523
C145  C     C_R   0.233174 0.821502 0.001949 -0.237642
C146  C     C_R   0.224932 0.182667 0.012571 -0.233951
C147  C     C_R   0.702351 0.729971 0.675761 0.908743
C148  C     C_R   0.765628 0.819800 0.008148 -0.224556
C149  C     C_R   0.266831 0.678502 0.998046 -0.237644
C150  C     C_R   0.775075 0.286963 0.917829 -0.251431
C151  C     C_R   0.734368 0.680200 0.991857 -0.224548
C152  C     C_R   0.275067 0.317337 0.987431 -0.233950
C153  C     C_R   0.650391 0.334251 0.942541 0.197970
C154  C     C_R   0.361227 0.681132 0.047591 0.179078
C155  C     C_R   0.363255 0.315167 0.046909 0.180741
C156  C     C_R   0.636443 0.686139 0.954628 0.172612
C157  C     C_R   0.138776 0.818871 0.952407 0.179071
C158  C     C_R   0.203765 0.773239 0.674751 0.912940
C159  C     C_R   0.849519 0.165588 0.057558 0.197960
C160  C     C_R   0.863555 0.813862 0.045372 0.172608
C161  C     C_R   0.136744 0.184835 0.953091 0.180739
C162  C     C_R   0.620128 0.351390 0.897389 -0.088055
C163  C     C_R   0.386486 0.656748 0.097737 -0.086807
C164  C     C_R   0.387844 0.341223 0.097252 -0.087206
C165  C     C_R   0.612850 0.658597 0.903055 -0.082438
C166  C     C_R   0.113515 0.843254 0.902262 -0.086806
C167  C     C_R   0.879829 0.148537 0.102653 -0.087988
C168  C     C_R   0.887148 0.841404 0.096946 -0.082428
C169  C     C_R   0.798584 0.232320 0.323832 0.903638
C170  C     C_R   0.112155 0.158777 0.902748 -0.087218
C171  C     C_R   0.634046 0.322496 0.814414 -0.315870
C172  C     C_R   0.366459 0.676144 0.186327 -0.315097
C173  C     C_R   0.367263 0.322851 0.186279 -0.313362
C174  C     C_R   0.632716 0.678489 0.814592 -0.316750
C175  C     C_R   0.133542 0.823857 0.813673 -0.315103
C176  C     C_R   0.865938 0.177482 0.185591 -0.315909
C177  C     C_R   0.867283 0.821511 0.185408 -0.316749
C178  C     C_R   0.132737 0.177149 0.813721 -0.313360
C179  C     C_R   0.679135 0.279971 0.771795 -0.051372
C180  C     C_R   0.797649 0.770028 0.324239 0.908738
C181  C     C_R   0.317009 0.709204 0.231276 -0.055003
C182  C     C_R   0.317184 0.291247 0.231537 -0.061734
C183  C     C_R   0.679718 0.717666 0.771514 -0.060210
C184  C     C_R   0.182992 0.790798 0.768722 -0.055007
C185  C     C_R   0.820840 0.219989 0.228218 -0.051360
C186  C     C_R   0.820282 0.782332 0.228486 -0.060211
C187  C     C_R   0.182816 0.208753 0.768463 -0.061736
C188  C     C_R   0.706743 0.256554 0.817596 -0.276742
C189  C     C_R   0.286054 0.721210 0.187863 -0.214032
C190  C     C_R   0.286198 0.279980 0.188139 -0.222924
C191  C     C_R   0.203928 0.226197 0.674520 0.913180
C192  C     C_R   0.707680 0.738846 0.817772 -0.220469
C193  C     C_R   0.213949 0.778794 0.812134 -0.214033
C194  C     C_R   0.793200 0.243350 0.182445 -0.276717
C195  C     C_R   0.792321 0.761150 0.182227 -0.220479
C196  C     C_R   0.213802 0.220022 0.811861 -0.222932
C197  C     C_R   0.691518 0.129109 0.533484 0.899219
C198  C     C_R   0.308667 0.870751 0.465392 0.900355
C199  C     C_R   0.308661 0.129323 0.465425 0.899817
C200  C     C_R   0.691539 0.870851 0.533386 0.902164
C201  C     C_R   0.191333 0.629249 0.534608 0.900353
C202  C     C_R   0.914663 0.500114 0.460142 0.063575
C203  C     C_R   0.808482 0.370891 0.466516 0.899227
C204  C     C_R   0.808461 0.629149 0.466612 0.902158
C205  C     C_R   0.191339 0.370677 0.534576 0.899817
C206  C     C_R   0.691901 0.282311 0.903763 0.080612
C207  C     C_R   0.308406 0.709502 0.094903 0.072735
C208  C     C_R   0.309703 0.287961 0.094289 0.063791
C209  C     C_R   0.686614 0.722754 0.909467 0.065149
C210  C     C_R   0.191597 0.790502 0.905094 0.072717
C211  C     C_R   0.808014 0.217533 0.096315 0.080589
C212  C     C_R   0.813385 0.777243 0.090534 0.065159
H1    H     H_    0.031012 0.251868 0.533485 0.133835
H2    H     H_    0.218366 0.499954 0.557389 0.185560
H3    H     H_    0.855242 0.066564 0.985120 0.247132
H4    H     H_    0.827774 0.137454 0.952019 0.229938
H5    H     H_    0.898456 0.140516 0.915243 0.248358
H6    H     H_    0.878479 0.778809 0.912331 0.233198
H7    H     H_    0.884218 0.874772 0.923687 0.250165
H8    H     H_    0.936335 0.812407 0.914847 0.239385
H9    H     H_    0.110660 0.137196 0.084641 0.246472
H10   H     H_    0.117619 0.234696 0.081097 0.236408
H11   H     H_    0.061123 0.195346 0.078586 0.237713
H12   H     H_    0.281635 0.000046 0.442608 0.185564
H13   H     H_    0.717298 0.999963 0.558534 0.194631
H14   H     H_    0.084824 0.318521 0.583905 0.175200
H15   H     H_    0.914311 0.681341 0.424449 0.178398
H16   H     H_    0.914368 0.319207 0.423522 0.177531
H17   H     H_    0.084848 0.680780 0.584606 0.177447
H18   H     H_    0.585689 0.818659 0.575549 0.178399
H19   H     H_    0.415174 0.181480 0.416101 0.175192
H20   H     H_    0.415152 0.819221 0.415394 0.177447
H21   H     H_    0.965849 0.748011 0.478913 0.135118
H22   H     H_    0.585631 0.180793 0.576483 0.177532
H23   H     H_    0.793694 0.317939 0.855625 0.157916
H24   H     H_    0.279663 0.623070 0.996451 0.154994
H25   H     H_    0.293834 0.370105 0.978026 0.155783
H26   H     H_    0.722886 0.625707 0.984469 0.155061
H27   H     H_    0.220344 0.876934 0.003542 0.154993
H28   H     H_    0.706219 0.181886 0.144452 0.157943
H29   H     H_    0.777111 0.874293 0.015535 0.155049
H30   H     H_    0.206165 0.129898 0.021975 0.155782
H31   H     H_    0.612079 0.337799 0.779564 0.183861
H32   H     H_    0.965308 0.252059 0.478896 0.134340
H33   H     H_    0.388144 0.661729 0.221937 0.184898
H34   H     H_    0.388869 0.337399 0.221972 0.185640
H35   H     H_    0.613183 0.659455 0.777210 0.186823
H36   H     H_    0.111856 0.838270 0.778063 0.184898
H37   H     H_    0.887936 0.162235 0.220408 0.183837
H38   H     H_    0.886816 0.840546 0.222790 0.186824
H39   H     H_    0.111131 0.162600 0.778028 0.185643
H40   H     H_    0.741217 0.220631 0.785185 0.163166
H41   H     H_    0.245086 0.741414 0.225721 0.168223
H42   H     H_    0.244508 0.262234 0.226848 0.177251
H43   H     H_    0.031621 0.747830 0.533339 0.134457
H44   H     H_    0.746454 0.766267 0.782319 0.169463
H45   H     H_    0.254916 0.758590 0.774275 0.168236
H46   H     H_    0.758727 0.279274 0.214851 0.163173
H47   H     H_    0.753548 0.733726 0.217680 0.169459
H48   H     H_    0.255491 0.237766 0.773153 0.177255
H49   H     H_    0.612332 0.238749 0.203072 0.127131
H50   H     H_    0.520274 0.187813 0.265987 0.134040
H51   H     H_    0.495868 0.111604 0.171415 0.123165
H52   H     H_    0.564303 0.085961 0.012845 0.120572
H53   H     H_    0.656839 0.135612 0.948943 0.125168
H54   H     H_    0.534153 0.751989 0.521084 0.135118
H55   H     H_    0.186872 0.863567 0.205897 0.125277
H56   H     H_    0.207187 0.921068 0.316929 0.112389
H57   H     H_    0.302477 0.944105 0.278639 0.113803
H58   H     H_    0.377137 0.918738 0.124914 0.123738
H59   H     H_    0.357693 0.859763 0.013672 0.127221
H60   H     H_    0.336655 0.134629 0.068934 0.129279
H61   H     H_    0.331720 0.076640 0.203585 0.115977
H62   H     H_    0.242642 0.056402 0.340072 0.116204
H63   H     H_    0.158059 0.088946 0.339239 0.109985
H64   H     H_    0.162215 0.150378 0.207033 0.131349
H65   H     H_    0.468984 0.248132 0.466526 0.133834
H66   H     H_    0.802510 0.911699 0.847944 0.124018
H67   H     H_    0.777474 0.017342 0.787124 0.122870
H68   H     H_    0.681361 0.039473 0.830963 0.116946
H69   H     H_    0.609680 0.956959 0.938818 0.121097
H70   H     H_    0.633682 0.851744 0.001552 0.131156
H71   H     H_    0.142326 0.640237 0.986251 0.127228
H72   H     H_    0.122919 0.581263 0.874966 0.123739
H73   H     H_    0.197604 0.555902 0.721264 0.113805
H74   H     H_    0.292884 0.578940 0.683040 0.112368
H75   H     H_    0.313161 0.636443 0.794112 0.125287
H76   H     H_    0.468380 0.752170 0.466658 0.134457
H77   H     H_    0.843057 0.364219 0.051145 0.125153
H78   H     H_    0.935575 0.413927 0.987245 0.120566
H79   H     H_    0.004011 0.388342 0.828659 0.123167
H80   H     H_    0.979626 0.312123 0.734068 0.134042
H81   H     H_    0.887588 0.261115 0.796987 0.127113
H82   H     H_    0.866319 0.648240 0.998405 0.131152
H83   H     H_    0.890332 0.542992 0.061074 0.121089
H84   H     H_    0.818656 0.460474 0.168929 0.116926
H85   H     H_    0.722536 0.482637 0.212840 0.122868
H86   H     H_    0.697490 0.588309 0.152080 0.124018
H87   H     H_    0.534688 0.247941 0.521113 0.134341
H88   H     H_    0.337795 0.349610 0.792974 0.131352
H89   H     H_    0.341967 0.411038 0.660753 0.109986
H90   H     H_    0.257394 0.443591 0.659894 0.116200
H91   H     H_    0.168309 0.423368 0.796370 0.115981
H92   H     H_    0.163356 0.365380 0.931035 0.129281
H93   H     H_    0.672008 0.362187 0.048298 0.229896
H94   H     H_    0.644671 0.433184 0.015129 0.247158
H95   H     H_    0.601357 0.359239 0.084856 0.248353
H96   H     H_    0.382670 0.629442 0.920394 0.248782
H97   H     H_    0.378729 0.726952 0.917854 0.232247
H98   H     H_    0.782703 0.500037 0.441462 0.194630
H99   H     H_    0.435328 0.687127 0.918411 0.238127
H100  H     H_    0.382379 0.265306 0.918904 0.236406
H101  H     H_    0.389338 0.362805 0.915359 0.246473
H102  H     H_    0.438876 0.304655 0.921414 0.237711
H103  H     H_    0.615779 0.625235 0.076318 0.250172
H104  H     H_    0.621515 0.721200 0.087669 0.233198
H105  H     H_    0.563661 0.687596 0.085152 0.239378
H106  H     H_    0.121276 0.773052 0.082144 0.232251
H107  H     H_    0.117334 0.870562 0.079603 0.248783
H108  H     H_    0.064676 0.812875 0.081588 0.238128
O1    O     O_R   0.746490 0.236330 0.638080 -0.636254
O2    O     O_R   0.325830 0.813840 0.483730 -0.640839
O3    O     O_R   0.325830 0.186160 0.483730 -0.639983
O4    O     O_R   0.674170 0.813840 0.516270 -0.643707
O5    O     O_R   0.174170 0.686160 0.516270 -0.640838
O6    O     O_R   0.825830 0.313840 0.483730 -0.641422
O7    O     O_R   0.825830 0.686160 0.483730 -0.643705
O8    O     O_R   0.174170 0.313840 0.516270 -0.639984
O9    O     O_R   0.739960 0.127620 0.525000 -0.625999
O10   O     O_R   0.260040 0.872380 0.475000 -0.632167
O11   O     O_R   0.260040 0.127620 0.475000 -0.634822
O12   O     O_R   0.253510 0.763670 0.361920 -0.633265
O13   O     O_R   0.739960 0.872380 0.525000 -0.624001
O14   O     O_R   0.239960 0.627620 0.525000 -0.632171
O15   O     O_R   0.760040 0.372380 0.475000 -0.625995
O16   O     O_R   0.760040 0.627620 0.475000 -0.624001
O17   O     O_R   0.239960 0.372380 0.525000 -0.634824
O18   O     O_R   0.680700 0.294870 0.629350 -0.631910
O19   O     O_R   0.319300 0.705130 0.370650 -0.636378
O20   O     O_R   0.319300 0.294870 0.370650 -0.638199
O21   O     O_R   0.680700 0.705130 0.629350 -0.635163
O22   O     O_R   0.180700 0.794870 0.629350 -0.636379
O23   O     O_R   0.253510 0.236330 0.361920 -0.627421
O24   O     O_R   0.819300 0.205130 0.370650 -0.631895
O25   O     O_R   0.819300 0.794870 0.370650 -0.635164
O26   O     O_R   0.180700 0.205130 0.629350 -0.638197
O27   O     O_R   0.062020 0.072840 0.007170 -0.609227
O28   O     O_R   0.937980 0.927160 0.992830 -0.619275
O29   O     O_R   0.937980 0.072840 0.992830 -0.623904
O30   O     O_R   0.062020 0.927160 0.007170 -0.611029
O31   O     O_R   0.562020 0.572840 0.007170 -0.619243
O32   O     O_R   0.437980 0.427160 0.992830 -0.609228
O33   O     O_R   0.437980 0.572840 0.992830 -0.611028
O34   O     O_R   0.746490 0.763670 0.638080 -0.633562
O35   O     O_R   0.562020 0.427160 0.007170 -0.623907
O36   O     O_R   0.947860 0.073950 0.109290 -0.627824
O37   O     O_R   0.052140 0.926050 0.890710 -0.623820
O38   O     O_R   0.052140 0.073950 0.890710 -0.619598
O39   O     O_R   0.947860 0.926050 0.109290 -0.628315
O40   O     O_R   0.447860 0.573950 0.109290 -0.623823
O41   O     O_R   0.552140 0.426050 0.890710 -0.627806
O42   O     O_R   0.552140 0.573950 0.890710 -0.628305
O43   O     O_R   0.447860 0.426050 0.109290 -0.619613
O44   O     O_R   0.246490 0.736330 0.638080 -0.633256
O45   O     O_R   0.753510 0.263670 0.361920 -0.636263
O46   O     O_R   0.753510 0.736330 0.361920 -0.633565
O47   O     O_R   0.246490 0.263670 0.638080 -0.627420
O48   O     O_R   0.674170 0.186160 0.516270 -0.641424
Zn1   Zn    Zn3+2 0.792340 0.208750 0.507670 0.929842
Zn2   Zn    Zn3+2 0.494040 0.500000 0.919480 0.924439
Zn3   Zn    Zn3+2 0.005960 1.000000 0.080520 0.924438
Zn4   Zn    Zn3+2 0.994040 0.000000 0.919480 0.919000
Zn5   Zn    Zn3+2 0.207660 0.791250 0.492330 0.921271
Zn6   Zn    Zn3+2 0.207660 0.208750 0.492330 0.924931
Zn7   Zn    Zn3+2 0.792340 0.791250 0.507670 0.938279
Zn8   Zn    Zn3+2 0.292340 0.708750 0.507670 0.921275
Zn9   Zn    Zn3+2 0.707660 0.291250 0.492330 0.929837
Zn10  Zn    Zn3+2 0.707660 0.708750 0.492330 0.938276
Zn11  Zn    Zn3+2 0.292340 0.291250 0.507670 0.924926
Zn12  Zn    Zn3+2 0.505960 0.500000 0.080520 0.918995

loop_
_geom_bond_atom_site_label_1
_geom_bond_atom_site_label_2
_ccdc_geom_bond_type
C132  C144  A    
C49   C113  A    
C105  C110  A    
C119  H94   S    
C120  H97   S    
C136  O23   A    
C171  C179  A    
C27   H32   S    
C14   C33   A    
C114  C115  A    
C19   C46   A    
O34   Zn7   S    
C16   C31   A    
C9    O32   A    
O42   Zn2   S    
C111  C118  A    
C50   C59   A    
C31   C42   A    
C52   C61   A    
C191  O47   A    
C106  C107  A    
C184  C193  A    
C78   C138  S    
C159  C211  A    
C108  C109  A    
C91   H70   S    
C188  H40   S    
C100  H78   S    
C131  C140  A    
C134  C143  A    
C13   C51   A    
C57   H16   S    
C44   C53   A    
C162  C171  A    
C192  H44   S    
C8    O42   A    
C141  C150  A    
O18   Zn9   S    
C119  C153  S    
O2    Zn8   S    
C50   C79   A    
C24   C50   A    
C62   H2    S    
C111  C114  A    
O11   Zn6   S    
C126  H8    S    
C56   C198  S    
C113  H22   S    
C134  C146  A    
C205  O8    A    
C149  H24   S    
C123  H107  S    
O41   Zn2   S    
C129  C152  A    
C7    O37   A    
O4    Zn10  S    
C179  C188  A    
C104  H81   S    
C11   C162  S    
C53   C201  S    
C177  C186  A    
C4    O38   A    
O20   Zn11  S    
C142  C151  A    
C9    C164  S    
O39   Zn3   S    
C75   C76   A    
C154  C163  A    
C29   H1    S    
C116  H90   S    
C54   C205  S    
C131  C210  S    
C122  H103  S    
O21   Zn10  S    
C163  C172  A    
C65   C135  S    
C7    C166  S    
C170  C178  A    
C173  C182  A    
C84   H64   S    
C120  H99   S    
C35   C45   A    
C112  O19   A    
C15   C30   A    
C16   C25   A    
O10   Zn5   S    
C124  C135  A    
C82   H62   S    
C156  C209  A    
C195  H47   S    
C72   C73   A    
C150  H23   S    
C200  O4    A    
O12   Zn5   S    
C52   C203  S    
C121  H102  S    
O46   Zn10  S    
C125  H3    S    
C172  H33   S    
C121  H100  S    
C48   C101  A    
C110  H86   S    
C159  C167  A    
C160  C168  A    
C18   C38   A    
C69   C70   A    
C2    C40   A    
C88   C89   A    
C98   C99   A    
C39   C202  A    
O37   Zn4   S    
C189  H41   S    
C182  C190  A    
C67   C69   A    
C126  H6    S    
C102  H79   S    
C173  H34   S    
C61   H98   S    
C27   C29   A    
O44   Zn8   S    
C198  O2    A    
C6    O29   A    
C69   H51   S    
C85   C86   A    
C70   H52   S    
O15   Zn9   S    
C133  C142  A    
C119  H95   S    
C37   C40   A    
C26   H43   S    
C51   C90   A    
C38   C39   A    
C78   C80   A    
C43   C52   A    
C177  H38   S    
C115  C116  A    
C144  H28   S    
C7    O30   A    
C20   C35   A    
C203  O15   A    
C172  C181  A    
C152  H25   S    
C99   C100  A    
C2    C44   A    
C22   C25   A    
C46   H15   S    
C30   C41   A    
C89   C91   A    
C66   H49   S    
C154  C207  A    
C111  C143  S    
C10   O40   A    
C66   C67   A    
O32   Zn2   S    
C132  C211  S    
O43   Zn12  S    
C83   H63   S    
C64   H13   S    
C92   C97   A    
C2    C45   A    
C58   C64   A    
C197  O48   A    
C139  C148  A    
C34   C39   A    
O23   Zn6   S    
C105  C142  S    
C129  C208  S    
C123  C157  S    
C165  C174  A    
C47   C202  A    
C197  O9    A    
C199  O3    A    
C83   C84   A    
C59   C200  S    
C146  H30   S    
C120  C154  S    
C169  O45   A    
C19   C28   A    
C180  C186  S    
C201  O14   A    
C130  C151  A    
C203  O6    A    
C132  C141  A    
C151  H26   S    
C72   C137  S    
C119  H93   S    
C171  H31   S    
C21   H87   S    
O1    Zn1   S    
O13   Zn7   S    
C11   O41   A    
C112  C181  S    
C205  O17   A    
C3    C134  S    
C14   C22   A    
C195  C212  A    
C117  C118  A    
C193  C210  A    
C138  C146  A    
C55   C61   A    
O5    Zn5   S    
C131  C145  A    
C101  H20   S    
C86   H66   S    
C102  C103  A    
O38   Zn4   S    
C8    C165  S    
C43   C57   A    
O8    Zn6   S    
C175  C184  A    
C130  C209  S    
C51   C60   A    
C158  O44   A    
C1    O18   A    
C140  C149  A    
C204  O16   A    
O31   Zn12  S    
C87   C88   A    
C58   C197  S    
C10   C163  S    
C187  C196  A    
C34   C37   A    
C24   C42   A    
C73   C74   A    
C185  C194  A    
C183  C192  A    
C13   C41   A    
C25   H54   S    
C23   H65   S    
C176  C185  A    
C188  C206  A    
C166  C175  A    
O17   Zn11  S    
C137  C145  A    
C107  H83   S    
C168  C177  A    
C5    C168  S    
O24   Zn1   S    
C127  H10   S    
C181  C189  A    
C178  H39   S    
C76   H58   S    
C96   H74   S    
C77   H59   S    
C70   C71   A    
C114  H88   S    
O36   Zn3   S    
C130  C139  A    
C174  H35   S    
C193  H45   S    
C85   C91   A    
C5    O28   A    
C155  C208  A    
C176  H37   S    
C86   C87   A    
C14   C101  A    
C54   C62   A    
C95   H73   S    
O47   Zn11  S    
O14   Zn8   S    
C158  O22   A    
C18   C57   A    
C43   C202  A    
C94   H72   S    
C87   H67   S    
O28   Zn4   S    
C4    C170  S    
C178  C187  A    
C175  H36   S    
C147  O34   A    
C21   C23   A    
C92   C140  S    
C126  H7    S    
C11   O35   A    
C124  C150  A    
C46   C47   A    
C17   C68   A    
C121  C155  S    
C123  H108  S    
C122  C156  S    
C204  O7    A    
C201  O5    A    
C174  C183  A    
C1    O1    A    
O30   Zn3   S    
C125  C159  S    
C200  O13   A    
O40   Zn12  S    
C126  C160  S    
C105  C106  A    
C89   H69   S    
C3    C196  A    
C153  C162  A    
C16   C79   A    
C33   C41   A    
C36   C38   A    
O48   Zn9   S    
C109  C110  A    
C97   H75   S    
O45   Zn9   S    
C103  H80   S    
C8    O31   A    
C156  C165  A    
C189  C207  A    
C55   C204  S    
C92   C93   A    
O22   Zn5   S    
C81   H61   S    
C94   C95   A    
C192  C209  A    
C3    C161  A    
C20   C36   A    
C128  C149  A    
C82   C83   A    
C103  C104  A    
C190  H42   S    
C169  O24   A    
C32   C42   A    
C80   H60   S    
O33   Zn2   S    
C136  O20   A    
C158  C184  S    
O35   Zn12  S    
C125  H5    S    
C10   O33   A    
C93   C94   A    
C35   H14   S    
C95   C96   A    
C81   C82   A    
C108  H84   S    
O16   Zn10  S    
C199  O11   A    
C59   C64   A    
C60   C63   A    
C17   C26   A    
O26   Zn6   S    
C191  O26   A    
C125  H4    S    
C121  H101  S    
O9    Zn1   S    
C116  C117  A    
C196  H48   S    
C73   H55   S    
C60   C199  S    
C194  C211  A    
C74   H56   S    
C129  C138  A    
O25   Zn7   S    
C31   C33   A    
C128  C207  S    
C9    O43   A    
C85   C139  S    
C187  C191  S    
C127  H11   S    
C28   H21   S    
C15   C23   A    
C157  C210  A    
C127  C161  S    
C12   C32   A    
C123  H106  S    
C106  H82   S    
C20   C29   A    
O6    Zn1   S    
C160  C212  A    
C74   C75   A    
C186  C195  A    
C36   C40   A    
C76   C77   A    
C112  O12   A    
C75   H57   S    
C65   C71   A    
C12   C21   A    
C49   C58   A    
C122  H104  S    
C194  H46   S    
O29   Zn4   S    
O19   Zn8   S    
C198  O10   A    
C128  C137  A    
C5    O39   A    
C79   H18   S    
C164  C173  A    
C72   C77   A    
C88   H68   S    
C53   C62   A    
O3    Zn11  S    
O7    Zn7   S    
C107  C108  A    
C96   C97   A    
C117  H91   S    
C100  C102  A    
C120  H96   S    
C56   C63   A    
C118  H92   S    
C115  H89   S    
C133  C148  A    
C17   C37   A    
C180  O25   A    
C22   H76   S    
C161  C170  A    
C190  C208  A    
C135  C144  A    
C109  H85   S    
C45   C54   A    
C98   C141  S    
C148  H29   S    
C90   H19   S    
C44   C68   A    
C136  C182  S    
C93   H71   S    
C67   H50   S    
C68   H17   S    
C47   C55   A    
C12   C113  A    
C147  C183  S    
C24   C49   A    
C48   C56   A    
C6    C167  S    
C143  C152  A    
C124  C206  S    
C63   H12   S    
C18   C27   A    
C80   C81   A    
C19   C34   A    
C157  C166  A    
C13   C48   A    
C155  C164  A    
C26   C28   A    
C180  O46   A    
C4    O27   A    
C169  C185  S    
C15   C90   A    
C30   C32   A    
C1    C179  S    
C98   C104  A    
C145  H27   S    
O27   Zn3   S    
C127  H9    S    
C153  C206  A    
C78   C84   A    
C122  H105  S    
C71   H53   S    
C65   C66   A    
C133  C212  S    
C99   H77   S    
C167  C176  A    
C147  O21   A    
C6    O36   A    
