data_str_m3_o40_o41_f0_fof.sym.206
_audit_creation_date              2012-12-10T16:37:57-0500
_audit_creation_method            fapswitch 2.2
_symmetry_space_group_name_H-M    P1
_symmetry_Int_Tables_number       1
_space_group_crystal_system       triclinic
_cell_length_a                    28.173604
_cell_length_b                    18.48919
_cell_length_c                    16.903854
_cell_angle_alpha                 90.003592
_cell_angle_beta                  60.766857
_cell_angle_gamma                 90.172109
_cell_volume                      7683.84300623

loop_
_atom_site_label
_atom_site_type_symbol
_atom_type_description
_atom_site_fract_x
_atom_site_fract_y
_atom_site_fract_z
_atom_type_partial_charge
C1    C     C_R   0.699848 0.264039 0.677468 0.915727
C2    C     C_R   0.299936 0.735587 0.322512 0.942558
C3    C     C_R   0.300044 0.264482 0.322387 0.903879
C4    C     C_R   0.699839 0.735672 0.677784 0.882723
C5    C     C_R   0.200265 0.765001 0.677523 0.881797
C6    C     C_R   0.799257 0.234402 0.322591 0.916006
C7    C     C_R   0.799815 0.764819 0.322420 0.921658
C8    C     C_R   0.200084 0.235338 0.677646 0.907387
C9    C     C_R   0.907630 0.498375 0.477501 0.071867
C10   C     C_R   0.095005 0.501516 0.516070 0.072382
C11   C     C_R   0.388043 0.000208 0.541416 0.068648
C12   C     C_R   0.575811 0.999279 0.579926 0.076594
C13   C     C_R   0.119713 0.384085 0.445053 -0.224997
C14   C     C_R   0.885590 0.617763 0.543626 -0.230307
C15   C     C_R   0.927965 0.376296 0.418520 -0.229173
C16   C     C_R   0.074187 0.623417 0.575235 -0.228744
C17   C     C_R   0.570722 0.868796 0.592981 -0.235152
C18   C     C_R   0.384475 0.130042 0.554745 -0.228283
C19   C     C_R   0.378462 0.871481 0.567110 -0.226869
C20   C     C_R   0.571264 0.129568 0.594450 -0.233332
C21   C     C_R   0.713999 0.255537 0.959733 0.030911
C22   C     C_R   0.283848 0.740997 0.041502 0.031080
C23   C     C_R   0.283248 0.259613 0.041973 0.032350
C24   C     C_R   0.714563 0.743421 0.960641 0.031562
C25   C     C_R   0.219478 0.763863 0.955993 0.032883
C26   C     C_R   0.777984 0.232132 0.045627 0.032135
C27   C     C_R   0.779228 0.765952 0.045662 0.031032
C28   C     C_R   0.218560 0.237240 0.956819 0.034564
C29   C     C_R   0.762026 0.213851 0.916181 0.046859
C30   C     C_R   0.235728 0.782502 0.085167 0.046484
C31   C     C_R   0.235845 0.216403 0.084837 0.045398
C32   C     C_R   0.761214 0.787852 0.918754 0.051612
C33   C     C_R   0.267715 0.722562 0.912155 0.051537
C34   C     C_R   0.729628 0.273231 0.089494 0.048018
C35   C     C_R   0.731486 0.723359 0.088949 0.045799
C36   C     C_R   0.265856 0.280586 0.914204 0.050133
C37   C     C_R   0.795221 0.204768 0.957530 0.048590
C38   C     C_R   0.202348 0.791287 0.044063 0.047083
C39   C     C_R   0.202583 0.207167 0.043479 0.048761
C40   C     C_R   0.794943 0.796388 0.959307 0.051174
C41   C     C_R   0.301055 0.713614 0.953406 0.049968
C42   C     C_R   0.696415 0.282275 0.048161 0.047857
C43   C     C_R   0.697950 0.714647 0.048044 0.046856
C44   C     C_R   0.299577 0.288938 0.954862 0.046078
C45   C     C_R   0.635482 0.312203 0.957478 0.033499
C46   C     C_R   0.363122 0.685777 0.043025 0.036607
C47   C     C_R   0.362662 0.314983 0.042967 0.028993
C48   C     C_R   0.636428 0.685893 0.958055 0.027761
C49   C     C_R   0.139479 0.817752 0.955696 0.026877
C50   C     C_R   0.858384 0.179177 0.045714 0.032098
C51   C     C_R   0.860001 0.818688 0.044822 0.029209
C52   C     C_R   0.138820 0.182709 0.956060 0.029685
C53   C     C_R   0.609156 0.334731 0.907196 -0.193283
C54   C     C_R   0.390094 0.664408 0.092892 -0.192526
C55   C     C_R   0.390043 0.335748 0.092271 -0.196198
C56   C     C_R   0.609634 0.664509 0.908178 -0.192696
C57   C     C_R   0.111620 0.837619 0.906875 -0.188938
C58   C     C_R   0.886748 0.160577 0.094291 -0.193306
C59   C     C_R   0.888635 0.837268 0.092928 -0.187573
C60   C     C_R   0.110764 0.163288 0.907356 -0.193275
C61   C     C_R   0.624268 0.303897 0.822780 0.119930
C62   C     C_R   0.375057 0.695470 0.177106 0.111063
C63   C     C_R   0.375684 0.304758 0.175802 0.112864
C64   C     C_R   0.624054 0.695667 0.824833 0.122984
C65   C     C_R   0.125680 0.806048 0.824071 0.114005
C66   C     C_R   0.872325 0.193165 0.176952 0.112570
C67   C     C_R   0.874851 0.805107 0.175553 0.106536
C68   C     C_R   0.124794 0.195005 0.824374 0.108261
C69   C     C_R   0.673571 0.267713 0.777439 -0.179749
C70   C     C_R   0.325656 0.731297 0.222597 -0.183797
C71   C     C_R   0.326025 0.268590 0.222355 -0.180305
C72   C     C_R   0.673754 0.731649 0.778092 -0.175731
C73   C     C_R   0.175340 0.770424 0.777169 -0.170425
C74   C     C_R   0.822768 0.227706 0.223417 -0.164959
C75   C     C_R   0.824965 0.769684 0.222623 -0.184659
C76   C     C_R   0.174535 0.230859 0.777647 -0.180198
C77   C     C_R   0.700672 0.244327 0.826277 0.029293
C78   C     C_R   0.297988 0.753728 0.174168 0.028429
C79   C     C_R   0.298090 0.246081 0.174087 0.032095
C80   C     C_R   0.700931 0.755247 0.827119 0.036592
C81   C     C_R   0.204226 0.749567 0.824459 0.036504
C82   C     C_R   0.793339 0.247338 0.176787 0.030411
C83   C     C_R   0.795854 0.749087 0.175495 0.035869
C84   C     C_R   0.202914 0.252554 0.825621 0.039329
C85   C     C_R   0.691162 0.129346 0.535826 0.896369
C86   C     C_R   0.302623 0.871645 0.486018 0.915928
C87   C     C_R   0.303518 0.128260 0.483528 0.909391
C88   C     C_R   0.691097 0.870416 0.536058 0.897351
C89   C     C_R   0.191214 0.629513 0.535618 0.895882
C90   C     C_R   0.808962 0.370347 0.463932 0.901397
C91   C     C_R   0.803925 0.627715 0.480730 0.905241
C92   C     C_R   0.196483 0.372217 0.518299 0.906995
C93   C     C_R   0.683320 0.270627 0.914491 0.070912
C94   C     C_R   0.315027 0.726842 0.086256 0.071302
C95   C     C_R   0.314688 0.273535 0.086393 0.072703
C96   C     C_R   0.683968 0.728167 0.915195 0.071658
C97   C     C_R   0.187801 0.777232 0.911885 0.069547
C98   C     C_R   0.809763 0.219217 0.089606 0.067992
C99   C     C_R   0.811661 0.777996 0.088780 0.069675
C100  C     C_R   0.186785 0.224118 0.912725 0.071442
C101  C     C_R   0.614232 0.326311 0.050842 -0.161838
C102  C     C_R   0.383753 0.670716 0.949948 -0.162754
C103  C     C_R   0.382698 0.331328 0.950292 -0.161412
C104  C     C_R   0.615722 0.670362 0.051126 -0.164951
C105  C     C_R   0.119168 0.833037 0.048614 -0.159748
C106  C     C_R   0.878594 0.163746 0.952807 -0.160903
C107  C     C_R   0.879006 0.836585 0.952801 -0.159389
C108  C     C_R   0.119581 0.164790 0.048076 -0.163018
C109  C     C_R   0.644456 0.313613 0.094339 -0.223021
C110  C     C_R   0.352876 0.681993 0.907269 -0.232242
C111  C     C_R   0.351159 0.321470 0.908637 -0.224808
C112  C     C_R   0.646399 0.682011 0.094001 -0.218810
C113  C     C_R   0.150308 0.822169 0.090794 -0.223111
C114  C     C_R   0.847303 0.174070 0.910810 -0.224823
C115  C     C_R   0.846374 0.829133 0.912849 -0.231631
C116  C     C_R   0.151640 0.173114 0.088826 -0.233541
C117  C     C_R   0.742665 0.192408 0.792480 -0.157570
C118  C     C_R   0.255658 0.805185 0.208062 -0.158247
C119  C     C_R   0.255966 0.194027 0.207815 -0.173728
C120  C     C_R   0.741619 0.809248 0.794904 -0.174428
C121  C     C_R   0.246993 0.698629 0.790347 -0.175819
C122  C     C_R   0.750362 0.297960 0.210927 -0.158801
C123  C     C_R   0.753168 0.697725 0.209407 -0.157301
C124  C     C_R   0.244814 0.304955 0.792564 -0.169584
C125  C     C_R   0.773486 0.179060 0.834799 -0.221333
C126  C     C_R   0.224440 0.817681 0.166242 -0.222260
C127  C     C_R   0.225002 0.180709 0.165616 -0.236923
C128  C     C_R   0.770873 0.825189 0.839690 -0.239908
C129  C     C_R   0.278871 0.687249 0.831241 -0.241038
C130  C     C_R   0.718363 0.308751 0.170246 -0.225521
C131  C     C_R   0.721046 0.686584 0.168759 -0.223320
C132  C     C_R   0.275887 0.317835 0.834886 -0.238760
C133  C     C_R   0.071404 0.103531 0.937116 0.940317
C134  C     C_R   0.928335 0.896677 0.063077 0.943699
C135  C     C_R   0.927649 0.102734 0.063737 0.937528
C136  C     C_R   0.071800 0.896803 0.936800 0.942985
C137  C     C_R   0.570843 0.604067 0.937591 0.932112
C138  C     C_R   0.428931 0.396134 0.062617 0.930561
C139  C     C_R   0.428695 0.603704 0.063039 0.921750
C140  C     C_R   0.571031 0.396031 0.937101 0.921152
C141  C     C_R   0.523519 0.131439 0.587967 -0.016781
C142  C     C_R   0.424404 0.869179 0.579265 -0.022707
C143  C     C_R   0.431053 0.131494 0.564409 -0.029536
C144  C     C_R   0.521662 0.867510 0.589975 -0.019655
C145  C     C_R   0.028460 0.624829 0.563007 -0.008846
C146  C     C_R   0.975457 0.375667 0.426700 -0.018452
C147  C     C_R   0.934572 0.622369 0.544798 -0.026147
C148  C     C_R   0.072333 0.380432 0.437916 -0.015836
C149  C     C_R   0.499309 0.197801 0.585201 0.176330
C150  C     C_R   0.444636 0.802973 0.593034 0.184058
C151  C     C_R   0.454041 0.197672 0.571365 0.182016
C152  C     C_R   0.494108 0.801783 0.595116 0.184650
C153  C     C_R   0.996835 0.688127 0.580431 0.177309
C154  C     C_R   0.010769 0.315189 0.399521 0.180878
C155  C     C_R   0.950303 0.686985 0.570381 0.178823
C156  C     C_R   0.059610 0.318280 0.403024 0.178885
C157  C     C_R   0.454737 0.065757 0.567879 -0.006041
C158  C     C_R   0.499608 0.933575 0.581669 -0.008715
C159  C     C_R   0.501128 0.065613 0.579050 -0.008235
C160  C     C_R   0.451987 0.934107 0.573772 -0.008818
C161  C     C_R   0.968453 0.561433 0.519517 -0.005745
C162  C     C_R   0.036228 0.439361 0.468792 -0.009162
C163  C     C_R   0.015240 0.562525 0.529009 -0.011215
C164  C     C_R   0.988625 0.437675 0.461240 -0.010488
C165  C     C_R   0.954771 0.498895 0.486597 0.013005
C166  C     C_R   0.048716 0.501111 0.504771 0.011229
C167  C     C_R   0.431392 0.000023 0.561564 0.015805
C168  C     C_R   0.525210 0.999437 0.581258 0.012150
C169  C     C_R   0.892432 0.435868 0.447646 0.060026
C170  C     C_R   0.109155 0.563612 0.548262 0.060266
C171  C     C_R   0.128360 0.440401 0.492751 0.043854
C172  C     C_R   0.874523 0.559984 0.500811 0.047029
C173  C     C_R   0.364292 0.934690 0.535995 0.051119
C174  C     C_R   0.601407 0.065339 0.578716 0.052228
C175  C     C_R   0.601248 0.933221 0.577940 0.053269
C176  C     C_R   0.366712 0.066019 0.530784 0.051577
C177  C     C_R   0.841506 0.435493 0.448723 -0.123497
C178  C     C_R   0.159145 0.564136 0.549789 -0.126722
C179  C     C_R   0.169536 0.438166 0.518034 -0.111390
C180  C     C_R   0.831675 0.561792 0.479401 -0.111364
C181  C     C_R   0.326381 0.935857 0.502009 -0.103820
C182  C     C_R   0.656296 0.064708 0.561376 -0.118196
C183  C     C_R   0.656170 0.934463 0.561263 -0.123496
C184  C     C_R   0.327647 0.064360 0.499069 -0.103245
C185  C     C_R   0.815577 0.499644 0.454294 -0.302392
C186  C     C_R   0.184765 0.500032 0.545282 -0.299883
C187  C     C_R   0.310409 0.999957 0.481998 -0.323981
C188  C     C_R   0.681576 0.999682 0.556402 -0.297663
H1    H     H_    0.780047 0.500203 0.445178 0.193453
H2    H     H_    0.219420 0.499395 0.556788 0.192937
H3    H     H_    0.282712 0.999784 0.454516 0.190420
H4    H     H_    0.723509 0.999859 0.542061 0.196735
H5    H     H_    0.150379 0.343502 0.411761 0.183525
H6    H     H_    0.855406 0.658418 0.579954 0.189325
H7    H     H_    0.919760 0.332093 0.385237 0.171875
H8    H     H_    0.081955 0.668322 0.607868 0.169806
H9    H     H_    0.583820 0.819675 0.610287 0.182612
H10   H     H_    0.361577 0.179176 0.571308 0.206810
H11   H     H_    0.353780 0.823769 0.583768 0.194078
H12   H     H_    0.584724 0.178442 0.611796 0.186905
H13   H     H_    0.573004 0.344233 0.093583 0.172757
H14   H     H_    0.424976 0.653104 0.906571 0.175915
H15   H     H_    0.423852 0.349185 0.906321 0.170411
H16   H     H_    0.574617 0.652027 0.094445 0.168745
H17   H     H_    0.077858 0.849948 0.092579 0.174019
H18   H     H_    0.920000 0.147545 0.908393 0.174304
H19   H     H_    0.920226 0.853480 0.907603 0.174434
H20   H     H_    0.078593 0.146952 0.092758 0.167745
H21   H     H_    0.625167 0.326186 0.165730 0.137058
H22   H     H_    0.371580 0.668100 0.836378 0.141572
H23   H     H_    0.369287 0.337022 0.838308 0.137075
H24   H     H_    0.627635 0.667949 0.164967 0.136782
H25   H     H_    0.131455 0.835315 0.161983 0.137505
H26   H     H_    0.866174 0.160951 0.839611 0.137701
H27   H     H_    0.863690 0.846334 0.843249 0.138986
H28   H     H_    0.134076 0.155353 0.158238 0.143944
H29   H     H_    0.751085 0.158321 0.735343 0.169838
H30   H     H_    0.247289 0.839754 0.264763 0.172555
H31   H     H_    0.247692 0.159503 0.264583 0.177321
H32   H     H_    0.749801 0.842995 0.737517 0.174680
H33   H     H_    0.255135 0.663171 0.734533 0.176416
H34   H     H_    0.742193 0.333896 0.266305 0.172699
H35   H     H_    0.745331 0.661985 0.264934 0.171054
H36   H     H_    0.252701 0.340004 0.736402 0.171837
H37   H     H_    0.804906 0.138663 0.804187 0.136858
H38   H     H_    0.192873 0.857877 0.196929 0.137566
H39   H     H_    0.193869 0.139748 0.196293 0.145502
H40   H     H_    0.800238 0.868598 0.812286 0.143543
H41   H     H_    0.310659 0.647392 0.800204 0.142360
H42   H     H_    0.686507 0.348558 0.201047 0.137529
H43   H     H_    0.689503 0.646046 0.199161 0.137302
H44   H     H_    0.306494 0.359675 0.805974 0.146081
O1    O     O_R   0.746490 0.236330 0.638080 -0.640888
O2    O     O_R   0.253510 0.763670 0.361920 -0.640211
O3    O     O_R   0.253510 0.236330 0.361920 -0.646390
O4    O     O_R   0.746490 0.763670 0.638080 -0.646307
O5    O     O_R   0.246490 0.736330 0.638080 -0.656609
O6    O     O_R   0.753510 0.263670 0.361920 -0.647659
O7    O     O_R   0.753510 0.736330 0.361920 -0.634119
O8    O     O_R   0.246490 0.263670 0.638080 -0.650356
O9    O     O_R   0.674170 0.186160 0.516270 -0.636602
O10   O     O_R   0.325830 0.813840 0.483730 -0.646276
O11   O     O_R   0.325830 0.186160 0.483730 -0.655412
O12   O     O_R   0.674170 0.813840 0.516270 -0.635612
O13   O     O_R   0.174170 0.686160 0.516270 -0.632451
O14   O     O_R   0.825830 0.313840 0.483730 -0.628822
O15   O     O_R   0.825830 0.686160 0.483730 -0.647212
O16   O     O_R   0.174170 0.313840 0.516270 -0.644428
O17   O     O_R   0.739960 0.127620 0.525000 -0.634483
O18   O     O_R   0.260040 0.872380 0.475000 -0.634378
O19   O     O_R   0.260040 0.127620 0.475000 -0.630092
O20   O     O_R   0.739960 0.872380 0.525000 -0.630105
O21   O     O_R   0.239960 0.627620 0.525000 -0.627955
O22   O     O_R   0.760040 0.372380 0.475000 -0.630094
O23   O     O_R   0.760040 0.627620 0.475000 -0.634269
O24   O     O_R   0.239960 0.372380 0.525000 -0.634092
O25   O     O_R   0.680700 0.294870 0.629350 -0.606973
O26   O     O_R   0.319300 0.705130 0.370650 -0.597720
O27   O     O_R   0.319300 0.294870 0.370650 -0.620705
O28   O     O_R   0.680700 0.705130 0.629350 -0.630565
O29   O     O_R   0.180700 0.794870 0.629350 -0.629846
O30   O     O_R   0.819300 0.205130 0.370650 -0.610515
O31   O     O_R   0.819300 0.794870 0.370650 -0.616732
O32   O     O_R   0.180700 0.205130 0.629350 -0.620421
O33   O     O_R   0.062020 0.072840 0.007170 -0.636804
O34   O     O_R   0.937980 0.927160 0.992830 -0.634921
O35   O     O_R   0.937980 0.072840 0.992830 -0.631023
O36   O     O_R   0.062020 0.927160 0.007170 -0.633658
O37   O     O_R   0.562020 0.572840 0.007170 -0.632918
O38   O     O_R   0.437980 0.427160 0.992830 -0.632643
O39   O     O_R   0.437980 0.572840 0.992830 -0.624162
O40   O     O_R   0.562020 0.427160 0.007170 -0.623384
O41   O     O_R   0.947860 0.073950 0.109290 -0.624239
O42   O     O_R   0.052140 0.926050 0.890710 -0.606347
O43   O     O_R   0.052140 0.073950 0.890710 -0.605995
O44   O     O_R   0.947860 0.926050 0.109290 -0.607060
O45   O     O_R   0.447860 0.573950 0.109290 -0.624016
O46   O     O_R   0.552140 0.426050 0.890710 -0.622101
O47   O     O_R   0.552140 0.573950 0.890710 -0.602739
O48   O     O_R   0.447860 0.426050 0.109290 -0.604543
Zn1   Zn    Zn3+2 0.792340 0.208750 0.507670 0.933077
Zn2   Zn    Zn3+2 0.207660 0.791250 0.492330 0.919013
Zn3   Zn    Zn3+2 0.207660 0.208750 0.492330 0.910868
Zn4   Zn    Zn3+2 0.792340 0.791250 0.507670 0.916288
Zn5   Zn    Zn3+2 0.292340 0.708750 0.507670 0.918805
Zn6   Zn    Zn3+2 0.707660 0.291250 0.492330 0.923720
Zn7   Zn    Zn3+2 0.707660 0.708750 0.492330 0.921246
Zn8   Zn    Zn3+2 0.292340 0.291250 0.507670 0.907626
Zn9   Zn    Zn3+2 0.505960 0.500000 0.080520 0.917638
Zn10  Zn    Zn3+2 0.494040 0.500000 0.919480 0.920251
Zn11  Zn    Zn3+2 0.005960 1.000000 0.080520 0.915682
Zn12  Zn    Zn3+2 0.994040 0.000000 0.919480 0.926467
N1    N     N_2   0.094656 0.256962 0.373008 -0.298151
H45   H     H_    0.134954 0.267907 0.328255 0.223059
C189  C     C_3   0.086204 0.205680 0.443299 -0.752014
H46   H     H_    0.096161 0.230696 0.493174 0.245172
H47   H     H_    0.112952 0.158125 0.412457 0.217036
H48   H     H_    0.043267 0.186748 0.478717 0.243811
N2    N     N_2   0.922907 0.753333 0.577667 -0.294508
H49   H     H_    0.907909 0.759571 0.533317 0.226209
C190  C     C_3   0.885194 0.774753 0.669191 -0.770278
H50   H     H_    0.850537 0.736139 0.700017 0.245130
H51   H     H_    0.869782 0.829643 0.667986 0.225042
H52   H     H_    0.905699 0.776378 0.710937 0.250649
N3    N     N_2   0.998224 0.250186 0.368262 -0.291362
H53   H     H_    0.957845 0.235198 0.399590 0.219916
C191  C     C_3   0.026279 0.242925 0.270881 -0.782657
H54   H     H_    0.013875 0.191672 0.251837 0.229018
H55   H     H_    0.070772 0.242021 0.244257 0.260993
H56   H     H_    0.016995 0.289597 0.239750 0.236107
N4    N     N_2   0.012545 0.754943 0.603084 -0.294552
H57   H     H_    0.020096 0.752689 0.656702 0.207964
C192  C     C_3   0.052566 0.795875 0.526422 -0.749805
H58   H     H_    0.059443 0.848866 0.550125 0.218400
H59   H     H_    0.037881 0.805963 0.477205 0.244709
H60   H     H_    0.091780 0.766273 0.492188 0.245241
N5    N     N_2   0.517545 0.733283 0.594655 -0.294027
H61   H     H_    0.559165 0.727880 0.556943 0.218999
C193  C     C_3   0.490609 0.689982 0.676333 -0.789123
H62   H     H_    0.520914 0.669187 0.694528 0.221562
H63   H     H_    0.470540 0.642918 0.664088 0.255725
H64   H     H_    0.459669 0.721861 0.734261 0.237472
N6    N     N_2   0.434979 0.265105 0.557165 -0.291453
H65   H     H_    0.426632 0.267116 0.504198 0.217977
C194  C     C_3   0.396676 0.303197 0.637914 -0.789800
H66   H     H_    0.356610 0.305914 0.640423 0.229360
H67   H     H_    0.411675 0.359070 0.635984 0.242592
H68   H     H_    0.391255 0.276043 0.700483 0.244425
N7    N     N_2   0.417595 0.736040 0.599876 -0.296568
H69   H     H_    0.376403 0.735721 0.644696 0.216972
C195  C     C_3   0.432555 0.701231 0.514256 -0.762086
H70   H     H_    0.412123 0.647710 0.526956 0.216442
H71   H     H_    0.477227 0.692643 0.475501 0.250123
H72   H     H_    0.419816 0.734607 0.473277 0.246388
N8    N     N_2   0.521616 0.265790 0.590457 -0.289469
H73   H     H_    0.530570 0.270626 0.642408 0.210642
C196  C     C_3   0.563721 0.293583 0.504592 -0.744616
H74   H     H_    0.576276 0.348261 0.514653 0.215481
H75   H     H_    0.548337 0.298075 0.455515 0.243105
H76   H     H_    0.599792 0.257589 0.476194 0.248713
N9    N     N_2   0.589544 0.306548 0.783404 -0.281996
H77   H     H_    0.586785 0.355756 0.757392 0.256193
C197  C     C_3   0.539156 0.266294 0.831224 -0.783018
H78   H     H_    0.512808 0.289671 0.899413 0.227764
H79   H     H_    0.547820 0.208815 0.838428 0.246749
H80   H     H_    0.516830 0.268220 0.792462 0.218700
N10   N     N_2   0.409434 0.692128 0.217111 -0.276664
H81   H     H_    0.411728 0.642864 0.243490 0.254711
C198  C     C_3   0.459796 0.732572 0.171015 -0.756575
H82   H     H_    0.487048 0.708971 0.103347 0.221032
H83   H     H_    0.480864 0.731169 0.211937 0.228134
H84   H     H_    0.451280 0.789896 0.162778 0.245194
N11   N     N_2   0.412248 0.310493 0.211414 -0.285988
H85   H     H_    0.402333 0.347357 0.262805 0.256861
C199  C     C_3   0.436321 0.243616 0.218791 -0.757391
H86   H     H_    0.468162 0.255706 0.237575 0.226699
H87   H     H_    0.455688 0.214942 0.152650 0.239180
H88   H     H_    0.405106 0.208049 0.271588 0.243877
N12   N     N_2   0.584918 0.697447 0.794480 -0.290482
H89   H     H_    0.593276 0.666576 0.738533 0.253581
C200  C     C_3   0.562561 0.768341 0.796999 -0.788859
H90   H     H_    0.528061 0.763831 0.783266 0.241721
H91   H     H_    0.594063 0.804394 0.745419 0.229333
H92   H     H_    0.546988 0.792738 0.865304 0.247331
N13   N     N_2   0.086973 0.806129 0.792724 -0.283087
H93   H     H_    0.095170 0.838746 0.738114 0.257795
C201  C     C_3   0.062478 0.736741 0.795251 -0.791351
H94   H     H_    0.025918 0.744768 0.787756 0.222943
H95   H     H_    0.049267 0.709642 0.861512 0.247307
H96   H     H_    0.091842 0.701615 0.739705 0.227927
N14   N     N_2   0.911078 0.202128 0.207176 -0.283415
H97   H     H_    0.920006 0.157567 0.234055 0.252016
C202  C     C_3   0.955828 0.250708 0.152970 -0.801837
H98   H     H_    0.995129 0.221841 0.126746 0.228330
H99   H     H_    0.954335 0.297117 0.195526 0.242928
H100  H     H_    0.953362 0.273016 0.093936 0.240893
N15   N     N_2   0.912141 0.809049 0.209869 -0.286809
H101  H     H_    0.903040 0.845476 0.261413 0.257114
C203  C     C_3   0.935379 0.741182 0.216525 -0.755651
H102  H     H_    0.967879 0.751862 0.234196 0.229021
H103  H     H_    0.953726 0.712485 0.150419 0.239091
H104  H     H_    0.903890 0.706223 0.269831 0.241261
N16   N     N_2   0.087839 0.190304 0.789444 -0.285826
H105  H     H_    0.097295 0.153675 0.737971 0.256862
C204  C     C_3   0.064255 0.257760 0.782462 -0.753841
H106  H     H_    0.032171 0.246508 0.763997 0.228539
H107  H     H_    0.095663 0.293075 0.729593 0.243076
H108  H     H_    0.045314 0.286333 0.848663 0.237494

loop_
_geom_bond_atom_site_label_1
_geom_bond_atom_site_label_2
_ccdc_geom_bond_type
C119  H31   S    
C85   C182  S    
N7    C195  S    
C9    C169  A    
C34   C42   A    
C116  H28   S    
C62   N10   S    
C196  H74   S    
C181  C187  A    
C190  H50   S    
C6    O6    A    
C68   N16   S    
C27   C99   A    
C170  C178  A    
C104  H16   S    
C175  C183  A    
C42   C109  A    
C24   C96   A    
C52   C108  A    
C30   C38   A    
N10   H81   S    
C150  N7    S    
C3    O3    A    
C1    O1    A    
C117  H29   S    
C152  N5    S    
C8    O32   A    
C147  C155  A    
C107  H19   S    
O11   Zn8   S    
C88   O20   A    
C143  C151  A    
C14   H6    S    
C90   C177  S    
C63   N11   S    
C5    O29   A    
C82   C98   A    
C76   C84   A    
C126  H38   S    
C109  H21   S    
C73   C81   A    
C161  C163  A    
C162  C164  A    
O22   Zn6   S    
C200  H92   S    
N6    H65   S    
C84   C100  A    
C140  O46   A    
C202  H100  S    
C57   C65   A    
N8    C196  S    
C137  O37   A    
C37   C114  A    
C27   C35   A    
C10   C171  A    
C123  H35   S    
O3    Zn3   S    
C81   C121  A    
C23   C31   A    
C186  H2    S    
C24   C32   A    
O10   Zn5   S    
O38   Zn10  S    
O15   Zn4   S    
C199  H86   S    
C146  C154  A    
C86   O10   A    
C115  H27   S    
C5    O5    A    
C63   C71   A    
C36   C44   A    
N16   H105  S    
C196  H76   S    
C12   C174  A    
C138  O38   A    
C190  H52   S    
C176  C184  A    
O7    Zn7   S    
C48   C96   A    
C138  O48   A    
C139  O45   A    
C88   C183  S    
C106  H18   S    
C133  O33   A    
O48   Zn9   S    
C148  C162  A    
C101  H13   S    
N13   H93   S    
C108  C116  A    
C21   C93   A    
C127  H39   S    
C3    O27   A    
C9    C165  A    
O25   Zn6   S    
C89   O13   A    
C201  H96   S    
O27   Zn8   S    
C49   C97   A    
C21   C42   A    
C40   C115  A    
C51   C107  A    
C122  H34   S    
N12   H89   S    
O33   Zn11  S    
C24   C43   A    
O34   Zn12  S    
O41   Zn11  S    
C135  O41   A    
C183  C188  A    
O42   Zn12  S    
C82   C122  A    
C161  C165  A    
C17   C175  A    
C204  H107  S    
C18   C176  A    
O1    Zn1   S    
C193  H63   S    
C85   O17   A    
C198  H82   S    
C29   C125  A    
C114  H26   S    
C69   C77   A    
C31   C127  A    
C108  H20   S    
C45   C93   A    
C174  C182  A    
C71   C79   A    
C92   O16   A    
C189  H47   S    
C179  C186  A    
C87   O19   A    
C65   N13   S    
C11   C176  A    
C91   O23   A    
C156  N1    S    
C17   C144  A    
C105  C113  A    
O35   Zn12  S    
C78   C118  A    
C78   C94   A    
O43   Zn12  S    
C36   C132  A    
O40   Zn9   S    
C192  H59   S    
O30   Zn1   S    
O45   Zn9   S    
C66   C74   A    
C90   O14   A    
C8    C76   S    
C49   C57   A    
C124  C132  A    
O14   Zn1   S    
C194  H67   S    
C20   H12   S    
C52   C60   A    
C59   C67   A    
C53   C61   A    
C141  C159  A    
C20   C174  A    
C124  H36   S    
C23   C95   A    
N3    C191  S    
C55   C63   A    
C86   C181  S    
C56   C64   A    
C7    O31   A    
C35   C43   A    
C10   C166  A    
C90   O22   A    
C45   C53   A    
C22   C94   A    
C171  C179  A    
C169  C177  A    
C8    O8    A    
C50   C98   A    
C151  N6    S    
C104  C112  A    
C203  H104  S    
O19   Zn3   S    
C145  C163  A    
C146  C164  A    
C14   C147  A    
C52   C100  A    
O31   Zn4   S    
N8    H73   S    
C16   C145  A    
N6    C194  S    
C178  C186  A    
C18   H10   S    
N1    H45   S    
C25   C38   A    
C195  H71   S    
C54   C139  S    
C46   C94   A    
C27   C40   A    
C128  H40   S    
C91   C180  S    
C6    O30   A    
C182  C188  A    
C89   C178  S    
C17   H9    S    
C28   C36   A    
C25   C97   A    
C199  H87   S    
N3    H53   S    
C198  H84   S    
N4    C192  S    
C67   C75   A    
O23   Zn7   S    
C4    O4    A    
C131  H43   S    
O32   Zn3   S    
C137  O47   A    
C22   C30   A    
C20   C141  A    
C15   C146  A    
C185  H1    S    
C58   C135  S    
C68   C76   A    
C59   C134  S    
C19   H11   S    
C184  C187  A    
C136  O36   A    
C191  H56   S    
C32   C128  A    
C197  H79   S    
C144  C152  A    
C56   C137  S    
C5    C73   S    
C195  H72   S    
N15   C203  S    
C153  N4    S    
C13   C171  A    
C4    O28   A    
C83   C99   A    
C117  C125  A    
C25   C33   A    
C119  C127  A    
C11   C167  A    
C134  O34   A    
C133  O43   A    
N13   C201  S    
O4    Zn4   S    
C197  H78   S    
O5    Zn5   S    
C157  C167  A    
C80   C120  A    
N11   H85   S    
C158  C168  A    
C203  H102  S    
C200  H91   S    
O17   Zn1   S    
O26   Zn5   S    
C164  C165  A    
C202  H99   S    
C22   C41   A    
C130  H42   S    
C101  C109  A    
N14   H97   S    
C155  N2    S    
C177  C185  A    
O24   Zn8   S    
C103  C111  A    
N5    C193  S    
N11   C199  S    
C162  C166  A    
O44   Zn11  S    
C2    O2    A    
O2    Zn2   S    
C79   C119  A    
C118  H30   S    
C153  C155  A    
C154  C156  A    
C15   H7    S    
C172  C180  A    
C173  C181  A    
C157  C159  A    
C13   H5    S    
C158  C160  A    
C110  H22   S    
C74   C82   A    
C125  H37   S    
C196  H75   S    
C6    C74   S    
C1    O25   A    
C190  H51   S    
O46   Zn10  S    
C91   O15   A    
C47   C103  A    
C191  H54   S    
C50   C58   A    
O8    Zn8   S    
C163  C166  A    
C147  C161  A    
C189  H46   S    
C38   C113  A    
C49   C105  A    
C54   C62   A    
C28   C39   A    
C1    C69   S    
C23   C44   A    
C64   N12   S    
C3    C71   S    
N2    H49   S    
C19   C173  A    
C79   C95   A    
C16   H8    S    
C92   C179  S    
C120  H32   S    
O47   Zn10  S    
C46   C54   A    
C85   O9    A    
C201  H95   S    
O36   Zn11  S    
C45   C101  A    
C92   O24   A    
C19   C142  A    
C102  C110  A    
C35   C131  A    
C4    C72   S    
C204  H106  S    
C154  N3    S    
C33   C129  A    
C18   C143  A    
C123  C131  A    
C136  O42   A    
C121  C129  A    
C88   O12   A    
C120  C128  A    
C26   C37   A    
C105  H17   S    
C10   C170  A    
C188  H4    S    
C33   C41   A    
C142  C150  A    
C149  C151  A    
C102  H14   S    
C75   C83   A    
C192  H58   S    
C21   C29   A    
C67   N15   S    
C77   C93   A    
C194  H66   S    
C111  H23   S    
C66   N14   S    
C193  H62   S    
C44   C111  A    
C16   C170  A    
C60   C68   A    
C72   C80   A    
C39   C116  A    
C29   C37   A    
C50   C106  A    
C121  H33   S    
C9    C172  A    
C148  C156  A    
C83   C123  A    
C2    C70   S    
C60   C133  S    
O16   Zn3   S    
C86   O18   A    
N4    H57   S    
C30   C126  A    
C70   C78   A    
C53   C140  S    
C134  O44   A    
N7    H69   S    
C201  H94   S    
C113  H25   S    
C195  H70   S    
C141  C149  A    
N9    H77   S    
C46   C102  A    
C55   C138  S    
C106  C114  A    
C112  H24   S    
C77   C117  A    
O20   Zn4   S    
O21   Zn5   S    
C203  H103  S    
C48   C104  A    
C129  H41   S    
C65   C73   A    
C159  C168  A    
C15   C169  A    
C160  C167  A    
N9    C197  S    
C58   C66   A    
N14   C202  S    
C57   C136  S    
O9    Zn6   S    
C80   C96   A    
O39   Zn10  S    
C187  H3    S    
O6    Zn6   S    
C204  H108  S    
C145  C153  A    
C28   C100  A    
C32   C40   A    
C193  H64   S    
C198  H83   S    
C89   O21   A    
C135  O35   A    
O18   Zn2   S    
C62   C70   A    
C132  H44   S    
C26   C34   A    
C143  C157  A    
C189  H48   S    
C51   C99   A    
C11   C173  A    
C14   C172  A    
C87   C184  S    
C192  H60   S    
C7    C75   S    
C139  O39   A    
C140  O40   A    
C191  H55   S    
C194  H68   S    
N16   C204  S    
N10   C198  S    
C87   O11   A    
N12   C200  S    
N2    C190  S    
C107  C115  A    
N15   H101  S    
C26   C98   A    
C12   C175  A    
C2    O26   A    
C7    O7    A    
C41   C110  A    
C150  C152  A    
C51   C59   A    
C43   C112  A    
C144  C158  A    
C47   C55   A    
C61   N9    S    
C61   C69   A    
C48   C56   A    
C142  C160  A    
C12   C168  A    
C84   C124  A    
C200  H90   S    
C149  N8    S    
N1    C189  S    
C202  H98   S    
O37   Zn9   S    
C81   C97   A    
C31   C39   A    
C64   C72   A    
N5    H61   S    
C103  H15   S    
O28   Zn7   S    
C180  C185  A    
O29   Zn2   S    
C199  H88   S    
C34   C130  A    
O12   Zn7   S    
C197  H80   S    
O13   Zn2   S    
C47   C95   A    
C118  C126  A    
C13   C148  A    
C122  C130  A    
