data_str_m2_o40_o41_f0_fof.sym.31
_audit_creation_date              2012-10-26T17:12:45-0400
_audit_creation_method            fapswitch 2.2
_symmetry_space_group_name_H-M    P1
_symmetry_Int_Tables_number       1
_space_group_crystal_system       triclinic
_cell_length_a                    27.789957
_cell_length_b                    18.648252
_cell_length_c                    16.770751
_cell_angle_alpha                 89.992204
_cell_angle_beta                  62.813812
_cell_angle_gamma                 90.095388
_cell_volume                      7731.01652577

loop_
_atom_site_label
_atom_site_type_symbol
_atom_type_description
_atom_site_fract_x
_atom_site_fract_y
_atom_site_fract_z
_atom_type_partial_charge
C1    C     C_R   0.292724 0.723322 0.330796 0.551998
C2    C     C_R   0.596215 0.002129 0.517999 -0.008996
C3    C     C_R   0.700173 0.694820 0.898864 0.029942
C4    C     C_R   0.111450 0.812965 0.045273 -0.103950
C5    C     C_R   0.881160 0.181682 0.959350 -0.096986
C6    C     C_R   0.891800 0.813139 0.949075 -0.106686
C7    C     C_R   0.106591 0.190471 0.049712 -0.098196
C8    C     C_R   0.609202 0.314463 0.050343 -0.104745
C9    C     C_R   0.385918 0.683162 0.955304 -0.109891
C10   C     C_R   0.374623 0.339462 0.959383 -0.103608
C11   C     C_R   0.621542 0.675019 0.040188 -0.095058
C12   C     C_R   0.139774 0.799998 0.094481 0.010314
C13   C     C_R   0.913349 0.499962 0.455482 -0.011684
C14   C     C_R   0.852082 0.198867 0.912049 0.008566
C15   C     C_R   0.864131 0.796358 0.899680 0.007982
C16   C     C_R   0.132407 0.214269 0.099803 0.007016
C17   C     C_R   0.636695 0.298094 0.100143 0.008128
C18   C     C_R   0.356334 0.693512 0.907675 0.006888
C19   C     C_R   0.341632 0.344596 0.917047 0.015389
C20   C     C_R   0.651421 0.686363 0.087473 0.013386
C21   C     C_R   0.273792 0.785017 0.767908 -0.122103
C22   C     C_R   0.720904 0.207667 0.241937 -0.122237
C23   C     C_R   0.763199 0.685055 0.205125 -0.136030
C24   C     C_R   0.086266 0.499804 0.546325 -0.011636
C25   C     C_R   0.230301 0.321080 0.797068 -0.138991
C26   C     C_R   0.742086 0.193241 0.792626 -0.122377
C27   C     C_R   0.225184 0.713299 0.234386 -0.119677
C28   C     C_R   0.246359 0.212541 0.210383 -0.119810
C29   C     C_R   0.780120 0.707300 0.757119 -0.121102
C30   C     C_R   0.302289 0.771494 0.815831 -0.140917
C31   C     C_R   0.690490 0.220595 0.196941 -0.150922
C32   C     C_R   0.733789 0.667847 0.159193 -0.157372
C33   C     C_R   0.256403 0.344824 0.846067 -0.145816
C34   C     C_R   0.772380 0.179247 0.837561 -0.150293
C35   C     C_R   0.626462 0.893022 0.429662 0.037148
C36   C     C_R   0.196077 0.726792 0.187521 -0.149923
C37   C     C_R   0.214249 0.203999 0.167573 -0.150391
C38   C     C_R   0.810867 0.719145 0.801846 -0.149188
C39   C     C_R   0.928688 0.899217 0.064207 0.549839
C40   C     C_R   0.071692 0.100098 0.935343 0.552401
C41   C     C_R   0.070709 0.898875 0.936079 0.551283
C42   C     C_R   0.928104 0.099822 0.064746 0.551579
C43   C     C_R   0.427142 0.401248 0.065303 0.556025
C44   C     C_R   0.572165 0.599531 0.935113 0.552318
C45   C     C_R   0.571386 0.399356 0.935738 0.554277
C46   C     C_R   0.375061 0.106793 0.566411 0.037906
C47   C     C_R   0.429069 0.600924 0.064023 0.553315
C48   C     C_R   0.038490 0.630027 0.534789 0.015735
C49   C     C_R   0.961026 0.369765 0.467445 0.018847
C50   C     C_R   0.960728 0.630159 0.468845 0.015130
C51   C     C_R   0.038550 0.369634 0.533861 0.018782
C52   C     C_R   0.524287 0.118822 0.579181 0.023413
C53   C     C_R   0.477045 0.881042 0.415993 0.024404
C54   C     C_R   0.426477 0.113640 0.564188 0.036673
C55   C     C_R   0.575297 0.886332 0.430415 0.039063
C56   C     C_R   0.017967 0.694870 0.519858 -0.145990
C57   C     C_R   0.430429 0.882213 0.400685 0.030017
C58   C     C_R   0.981380 0.304920 0.482763 -0.139786
C59   C     C_R   0.981009 0.694945 0.484685 -0.145978
C60   C     C_R   0.018205 0.304849 0.518180 -0.139928
C61   C     C_R   0.489372 0.178409 0.601986 -0.147262
C62   C     C_R   0.512414 0.821835 0.391907 -0.147574
C63   C     C_R   0.441541 0.175778 0.594196 -0.135591
C64   C     C_R   0.560425 0.824483 0.399245 -0.135480
C65   C     C_R   0.979141 0.565047 0.487453 0.013620
C66   C     C_R   0.020194 0.434745 0.515101 0.013477
C67   C     C_R   0.020131 0.564997 0.515631 0.013714
C68   C     C_R   0.570389 0.117587 0.595650 0.029475
C69   C     C_R   0.979274 0.434798 0.486770 0.013489
C70   C     C_R   0.464448 0.057638 0.528653 0.008274
C71   C     C_R   0.537078 0.942099 0.466510 0.008962
C72   C     C_R   0.512938 0.059727 0.537286 0.011602
C73   C     C_R   0.488479 0.939992 0.458018 0.011478
C74   C     C_R   0.452567 0.998129 0.488530 -0.019049
C75   C     C_R   0.548757 0.001513 0.507157 -0.018490
C76   C     C_R   0.958192 0.499943 0.474253 -0.017483
C77   C     C_R   0.041243 0.499842 0.528051 -0.017493
C78   C     C_R   0.390480 0.936518 0.443462 0.018726
C79   C     C_R   0.076330 0.370657 0.568911 0.038363
C80   C     C_R   0.610253 0.063109 0.553670 0.019441
C81   C     C_R   0.630808 0.941965 0.490649 -0.009308
C82   C     C_R   0.370254 0.057736 0.506146 -0.008151
C83   C     C_R   0.891135 0.433990 0.445787 0.015914
C84   C     C_R   0.108731 0.565785 0.555319 0.014047
C85   C     C_R   0.108672 0.433802 0.555185 0.017129
C86   C     C_R   0.890940 0.565966 0.446632 0.015087
C87   C     C_R   0.336815 0.934486 0.451701 -0.028911
C88   C     C_R   0.663663 0.065240 0.546307 -0.026942
C89   C     C_R   0.672957 0.937783 0.516135 -0.034235
C90   C     C_R   0.923111 0.629115 0.433447 0.035273
C91   C     C_R   0.327677 0.062065 0.481797 -0.034209
C92   C     C_R   0.837633 0.434277 0.453001 -0.029077
C93   C     C_R   0.162390 0.565583 0.547291 -0.029051
C94   C     C_R   0.162337 0.434188 0.547352 -0.028736
C95   C     C_R   0.837504 0.565644 0.453542 -0.028404
C96   C     C_R   0.309795 0.999115 0.459264 -0.174719
C97   C     C_R   0.690656 0.000723 0.538975 -0.172829
C98   C     C_R   0.812483 0.499928 0.455956 -0.179831
C99   C     C_R   0.187545 0.499932 0.544236 -0.180323
C100  C     C_3   0.678890 0.886412 0.341502 -0.255310
C101  C     C_R   0.923421 0.370923 0.432053 0.038270
C102  C     C_3   0.680093 0.833055 0.272350 -0.436163
C103  C     C_3   0.324083 0.110778 0.656831 -0.255994
C104  C     C_3   0.319471 0.173799 0.716999 -0.430031
C105  C     C_3   0.430045 0.836929 0.324388 -0.272489
C106  C     C_3   0.422607 0.882096 0.254562 -0.436222
C107  C     C_3   0.570030 0.163495 0.672124 -0.270375
C108  C     C_3   0.580525 0.120302 0.740329 -0.434271
C109  C     C_3   0.068155 0.315048 0.641614 -0.254114
C110  C     C_3   0.076929 0.343875 0.719541 -0.422008
C111  C     C_3   0.931571 0.684497 0.360458 -0.252485
C112  C     C_R   0.703591 0.268311 0.671860 0.551781
C113  C     C_R   0.076462 0.628823 0.569460 0.035182
C114  C     C_3   0.922890 0.655839 0.282360 -0.419020
C115  C     C_3   0.931626 0.315381 0.359334 -0.253560
C116  C     C_3   0.922816 0.344009 0.281390 -0.421936
C117  C     C_3   0.068779 0.684219 0.642010 -0.252238
C118  C     C_3   0.078626 0.655803 0.719037 -0.418277
C119  C     C_3   0.115266 0.834966 0.186763 -0.275034
C120  C     C_3   0.063362 0.797494 0.253638 -0.460184
C121  C     C_3   0.885514 0.219596 0.814064 -0.277777
C122  C     C_3   0.917687 0.156414 0.756036 -0.447972
C123  C     C_3   0.883911 0.836407 0.811026 -0.275787
C124  C     C_R   0.219523 0.769114 0.954949 0.014085
C125  C     C_3   0.937823 0.807287 0.739153 -0.459431
C126  C     C_3   0.096886 0.225851 0.199665 -0.280508
C127  C     C_3   0.071585 0.156265 0.250032 -0.449918
C128  C     C_3   0.614961 0.335522 0.190665 -0.280692
C129  C     C_3   0.561301 0.303187 0.259817 -0.448553
C130  C     C_3   0.377777 0.653523 0.818227 -0.263932
C131  C     C_3   0.337765 0.596783 0.818936 -0.426509
C132  C     C_3   0.370561 0.379225 0.824313 -0.262814
C133  C     C_3   0.387934 0.325372 0.748137 -0.455018
C134  C     C_3   0.617901 0.696197 0.187961 -0.286730
C135  C     C_R   0.770720 0.213834 0.054697 0.018416
C136  C     C_3   0.590186 0.626569 0.234919 -0.446152
C137  C     C_R   0.793973 0.739501 0.033809 0.017089
C138  C     C_R   0.205481 0.262244 0.964012 0.014431
C139  C     C_R   0.709021 0.246162 0.964843 0.019315
C140  C     C_R   0.278069 0.727722 0.047402 0.017688
C141  C     C_R   0.271025 0.285305 0.049573 0.014875
C142  C     C_R   0.731568 0.707929 0.944697 0.018225
C143  C     C_R   0.275436 0.752681 0.906966 0.009079
C144  C     C_R   0.708263 0.721739 0.668318 0.563221
C145  C     C_R   0.715456 0.233382 0.104135 0.009541
C146  C     C_R   0.744054 0.702697 0.078870 0.006654
C147  C     C_R   0.251257 0.307963 0.922896 0.013811
C148  C     C_R   0.760145 0.212718 0.919213 0.008280
C149  C     C_R   0.222135 0.744420 0.095857 0.007755
C150  C     C_R   0.222231 0.245552 0.092738 0.008039
C151  C     C_R   0.786388 0.729319 0.895134 0.009537
C152  C     C_R   0.303948 0.725861 0.952379 0.022280
C153  C     C_R   0.686724 0.259890 0.058219 0.014787
C154  C     C_R   0.708671 0.697845 0.038811 0.013884
C155  C     C_R   0.295300 0.270246 0.328352 0.563090
C156  C     C_R   0.287251 0.316360 0.962498 0.019013
C157  C     C_R   0.794709 0.207836 0.960309 0.012754
C158  C     C_R   0.193153 0.770222 0.050219 0.012481
C159  C     C_R   0.186843 0.239572 0.053457 0.012463
C160  C     C_R   0.815192 0.755555 0.941065 0.014651
C161  C     C_R   0.137216 0.813072 0.951483 -0.011113
C162  C     C_R   0.855855 0.176541 0.053116 -0.009041
C163  C     C_R   0.868256 0.804713 0.042634 -0.012248
C164  C     C_R   0.132304 0.193945 0.955623 -0.011853
C165  C     C_R   0.633207 0.307153 0.956628 -0.011952
C166  C     C_R   0.791907 0.221976 0.331684 0.555130
C167  C     C_R   0.361142 0.684591 0.049174 -0.007364
C168  C     C_R   0.354079 0.327754 0.051271 -0.009919
C169  C     C_R   0.645864 0.673199 0.946424 -0.008580
C170  C     C_R   0.112627 0.842272 0.900611 -0.032693
C171  C     C_R   0.883481 0.152531 0.101716 -0.033510
C172  C     C_R   0.888700 0.839296 0.097161 -0.031882
C173  C     C_R   0.112187 0.158813 0.901391 -0.031886
C174  C     C_R   0.611903 0.340241 0.902516 -0.030378
C175  C     C_R   0.386682 0.656969 0.099496 -0.031265
C176  C     C_R   0.382715 0.347711 0.100246 -0.028580
C177  C     C_R   0.207212 0.776567 0.669288 0.552969
C178  C     C_R   0.617353 0.651524 0.898230 -0.031501
C179  C     C_R   0.134695 0.825974 0.809482 -0.171091
C180  C     C_R   0.862595 0.170349 0.192093 -0.171827
C181  C     C_R   0.865941 0.822525 0.188515 -0.174754
C182  C     C_R   0.135251 0.174722 0.809847 -0.173898
C183  C     C_R   0.634386 0.323024 0.811356 -0.171026
C184  C     C_R   0.365067 0.673993 0.190364 -0.170204
C185  C     C_R   0.363333 0.325426 0.188888 -0.169962
C186  C     C_R   0.637895 0.670273 0.808267 -0.165317
C187  C     C_R   0.186227 0.796118 0.764631 -0.026681
C188  C     C_R   0.203061 0.232592 0.671765 0.538408
C189  C     C_R   0.810724 0.198823 0.238394 -0.024141
C190  C     C_R   0.823044 0.774043 0.228393 -0.034973
C191  C     C_R   0.176623 0.225362 0.770810 -0.035085
C192  C     C_R   0.678327 0.276319 0.771109 -0.029934
C193  C     C_R   0.313326 0.703139 0.235766 -0.024373
C194  C     C_R   0.316789 0.283566 0.230460 -0.027862
C195  C     C_R   0.689888 0.698353 0.761627 -0.024288
C196  C     C_R   0.217158 0.787603 0.811717 0.008917
C197  C     C_R   0.777508 0.203095 0.194796 0.010546
C198  C     C_R   0.802337 0.740150 0.173865 0.003203
C199  C     C_R   0.796890 0.767342 0.327978 0.534213
C200  C     C_R   0.195600 0.261517 0.825843 -0.000859
C201  C     C_R   0.700915 0.245572 0.824684 0.011763
C202  C     C_R   0.281768 0.710441 0.189610 0.012121
C203  C     C_R   0.288235 0.263697 0.180578 0.014982
C204  C     C_R   0.723577 0.701758 0.804761 0.011060
C205  C     C_R   0.196246 0.631652 0.528211 0.554458
C206  C     C_R   0.803787 0.368291 0.471709 0.564774
C207  C     C_R   0.803714 0.631622 0.472013 0.546480
C208  C     C_R   0.196203 0.368290 0.528377 0.556137
C209  C     C_R   0.695762 0.132140 0.530834 0.545404
C210  C     C_R   0.404828 0.997510 0.478489 -0.009080
C211  C     C_R   0.304420 0.867703 0.468367 0.553219
C212  C     C_R   0.300293 0.130467 0.482952 0.556667
C213  C     C_R   0.699805 0.869472 0.516775 0.558337
C214  C     C_R   0.190942 0.788806 0.906354 0.029960
C215  C     C_R   0.801543 0.198397 0.100637 0.029197
C216  C     C_R   0.821716 0.761433 0.083324 0.026325
C217  C     C_R   0.177765 0.239130 0.915097 0.024727
C218  C     C_R   0.680955 0.266496 0.915403 0.030789
C219  C     C_R   0.307298 0.708525 0.095118 0.030781
C220  C     C_R   0.303978 0.293394 0.094441 0.028699
Cu1   Cu    Cu3+1 0.209920 0.785290 0.495070 0.877973
Cu2   Cu    Cu3+1 0.504760 0.500000 0.075850 0.891785
Cu3   Cu    Cu3+1 0.995240 0.000000 0.924150 0.887996
Cu4   Cu    Cu3+1 0.004760 0.000000 0.075850 0.888077
Cu5   Cu    Cu3+1 0.790080 0.214710 0.504930 0.877259
Cu6   Cu    Cu3+1 0.790080 0.785290 0.504930 0.877686
Cu7   Cu    Cu3+1 0.209920 0.214710 0.495070 0.879252
Cu8   Cu    Cu3+1 0.709920 0.285290 0.495070 0.889661
Cu9   Cu    Cu3+1 0.290080 0.714710 0.504930 0.890204
Cu10  Cu    Cu3+1 0.290080 0.285290 0.504930 0.896898
Cu11  Cu    Cu3+1 0.709920 0.714710 0.495070 0.899264
Cu12  Cu    Cu3+1 0.495240 0.500000 0.924150 0.888642
H1    H     H_    0.585117 0.776805 0.382496 0.112440
H2    H     H_    0.727569 0.000260 0.545861 0.157693
H3    H     H_    0.353087 0.307822 0.739015 0.156003
H4    H     H_    0.417393 0.350794 0.684527 0.124560
H5    H     H_    0.349252 0.426328 0.816453 0.122183
H6    H     H_    0.408739 0.405407 0.815452 0.134301
H7    H     H_    0.558401 0.610942 0.215528 0.150584
H8    H     H_    0.619735 0.582088 0.217442 0.148966
H9    H     H_    0.570658 0.634607 0.308653 0.126547
H10   H     H_    0.641325 0.718151 0.220056 0.143462
H11   H     H_    0.586149 0.737084 0.200432 0.132872
H12   H     H_    0.296774 0.798477 0.697716 0.148547
H13   H     H_    0.771437 0.499875 0.464410 0.159736
H14   H     H_    0.699242 0.198397 0.313382 0.151304
H15   H     H_    0.754307 0.654636 0.264944 0.150865
H16   H     H_    0.236604 0.351375 0.738172 0.144756
H17   H     H_    0.751415 0.161213 0.733976 0.149183
H18   H     H_    0.202558 0.700935 0.304963 0.150007
H19   H     H_    0.239208 0.174988 0.263429 0.150090
H20   H     H_    0.801570 0.699819 0.685364 0.151677
H21   H     H_    0.345294 0.780120 0.781916 0.114150
H22   H     H_    0.647233 0.219146 0.235804 0.126762
H23   H     H_    0.703140 0.626814 0.186890 0.123907
H24   H     H_    0.228729 0.500005 0.535121 0.159656
H25   H     H_    0.278504 0.393562 0.823454 0.115816
H26   H     H_    0.804625 0.140569 0.809042 0.121648
H27   H     H_    0.152923 0.721719 0.224193 0.129618
H28   H     H_    0.184178 0.162173 0.191988 0.123587
H29   H     H_    0.854056 0.719054 0.762307 0.128702
H30   H     H_    0.113139 0.840842 0.772042 0.152502
H31   H     H_    0.885997 0.159144 0.227568 0.151812
H32   H     H_    0.880465 0.850005 0.230265 0.157928
H33   H     H_    0.121676 0.145871 0.767731 0.158863
H34   H     H_    0.618775 0.348775 0.770066 0.157348
H35   H     H_    0.387182 0.660218 0.227249 0.152020
H36   H     H_    0.384035 0.342576 0.226897 0.155963
H37   H     H_    0.417048 0.223521 0.609478 0.113377
H38   H     H_    0.614057 0.660033 0.773279 0.155485
H39   H     H_    0.675563 0.778099 0.299951 0.163882
H40   H     H_    0.648905 0.845712 0.250579 0.149671
H41   H     H_    0.719792 0.836878 0.211807 0.155817
H42   H     H_    0.687705 0.940099 0.308933 0.138733
H43   H     H_    0.713689 0.873578 0.354050 0.163242
H44   H     H_    0.350361 0.170942 0.741410 0.147866
H45   H     H_    0.322225 0.224346 0.680556 0.176228
H46   H     H_    0.279663 0.171317 0.777317 0.156327
H47   H     H_    0.286974 0.111133 0.647740 0.153597
H48   H     H_    0.502800 0.771879 0.369664 0.100894
H49   H     H_    0.322020 0.060854 0.694550 0.139656
H50   H     H_    0.380516 0.901710 0.280737 0.152609
H51   H     H_    0.450919 0.928437 0.233417 0.159356
H52   H     H_    0.431269 0.848700 0.194667 0.135575
H53   H     H_    0.469132 0.809310 0.285659 0.123916
H54   H     H_    0.399502 0.793822 0.349334 0.187687
H55   H     H_    0.555645 0.070629 0.759579 0.160336
H56   H     H_    0.623829 0.106274 0.713795 0.146523
H57   H     H_    0.569459 0.153078 0.801552 0.136288
H58   H     H_    0.598278 0.209249 0.647000 0.184430
H59   H     H_    0.499214 0.228394 0.623889 0.098937
H60   H     H_    0.529691 0.187696 0.712475 0.127052
H61   H     H_    0.120343 0.352931 0.699362 0.151211
H62   H     H_    0.054282 0.394683 0.745299 0.147806
H63   H     H_    0.061880 0.303960 0.774864 0.132747
H64   H     H_    0.025294 0.296716 0.672961 0.121728
H65   H     H_    0.092160 0.265841 0.613282 0.178462
H66   H     H_    0.945025 0.604609 0.257197 0.148207
H67   H     H_    0.879459 0.647657 0.302027 0.154014
H68   H     H_    0.938612 0.695468 0.226709 0.132033
H69   H     H_    0.908081 0.734158 0.388343 0.177915
H70   H     H_    0.032208 0.253761 0.530234 0.097253
H71   H     H_    0.974464 0.701935 0.329279 0.121658
H72   H     H_    0.879334 0.351884 0.301318 0.159569
H73   H     H_    0.944907 0.395381 0.256187 0.147631
H74   H     H_    0.938489 0.304486 0.225722 0.128037
H75   H     H_    0.974486 0.297490 0.328048 0.119520
H76   H     H_    0.907814 0.265895 0.387612 0.178990
H77   H     H_    0.057140 0.604049 0.744262 0.148129
H78   H     H_    0.122275 0.648754 0.698265 0.159490
H79   H     H_    0.062922 0.695068 0.774992 0.129898
H80   H     H_    0.092107 0.734005 0.613434 0.178193
H81   H     H_    0.966940 0.746023 0.472738 0.097915
H82   H     H_    0.025835 0.701349 0.674449 0.120745
H83   H     H_    0.069162 0.826569 0.082003 0.147599
H84   H     H_    0.924735 0.177707 0.922509 0.137873
H85   H     H_    0.931924 0.834574 0.911831 0.154916
H86   H     H_    0.064658 0.174705 0.085589 0.145371
H87   H     H_    0.568565 0.334119 0.087476 0.155378
H88   H     H_    0.428369 0.670762 0.917389 0.138298
H89   H     H_    0.417767 0.343129 0.917820 0.144111
H90   H     H_    0.577967 0.671961 0.077994 0.139104
H91   H     H_    0.052859 0.815565 0.322734 0.133398
H92   H     H_    0.967436 0.253862 0.470320 0.097313
H93   H     H_    0.068024 0.738361 0.250366 0.152219
H94   H     H_    0.029214 0.811319 0.239363 0.138209
H95   H     H_    0.144337 0.840621 0.214523 0.147468
H96   H     H_    0.104885 0.891462 0.179839 0.145796
H97   H     H_    0.950641 0.140986 0.772622 0.145019
H98   H     H_    0.891411 0.109012 0.765903 0.146669
H99   H     H_    0.936355 0.172241 0.684272 0.131538
H100  H     H_    0.860995 0.244513 0.784899 0.160536
H101  H     H_    0.914741 0.262068 0.809816 0.137147
H102  H     H_    0.971436 0.823087 0.753981 0.137776
H103  H     H_    0.031926 0.745913 0.532305 0.098560
H104  H     H_    0.937131 0.747995 0.735448 0.151247
H105  H     H_    0.946212 0.829825 0.672770 0.132578
H106  H     H_    0.853455 0.838768 0.785873 0.149315
H107  H     H_    0.890033 0.893769 0.822351 0.144518
H108  H     H_    0.039582 0.137008 0.233018 0.144098
H109  H     H_    0.102229 0.113351 0.233557 0.147647
H110  H     H_    0.052586 0.166401 0.323347 0.129962
H111  H     H_    0.118518 0.253770 0.232150 0.159066
H112  H     H_    0.063574 0.262757 0.207935 0.136020
H113  H     H_    0.552008 0.323109 0.327709 0.137391
H114  H     H_    0.272600 0.999605 0.453254 0.157909
H115  H     H_    0.562814 0.243746 0.260008 0.155133
H116  H     H_    0.527800 0.319493 0.245031 0.145510
H117  H     H_    0.644680 0.338279 0.217351 0.149159
H118  H     H_    0.607704 0.392907 0.181511 0.143704
H119  H     H_    0.356849 0.564561 0.756473 0.121997
H120  H     H_    0.326371 0.560203 0.877126 0.157720
H121  H     H_    0.300693 0.621756 0.822409 0.169027
H122  H     H_    0.390780 0.688695 0.759179 0.128706
H123  H     H_    0.415430 0.623983 0.805102 0.133672
H124  H     H_    0.407435 0.278200 0.761735 0.150394
O1    O     O_R   0.255040 0.869590 0.478480 -0.505135
O2    O     O_R   0.817950 0.203450 0.375560 -0.519784
O3    O     O_R   0.817950 0.796550 0.375560 -0.519701
O4    O     O_R   0.182050 0.203450 0.624440 -0.520806
O5    O     O_R   0.682050 0.296550 0.624440 -0.517898
O6    O     O_R   0.317950 0.703450 0.375560 -0.521784
O7    O     O_R   0.317950 0.296550 0.375560 -0.500529
O8    O     O_R   0.682050 0.703450 0.624440 -0.503216
O9    O     O_R   0.250530 0.763330 0.367210 -0.511924
O10   O     O_R   0.749470 0.236670 0.632790 -0.514000
O11   O     O_R   0.749470 0.763330 0.632790 -0.510074
O12   O     O_R   0.744960 0.130410 0.521520 -0.514033
O13   O     O_R   0.250530 0.236670 0.367210 -0.514866
O14   O     O_R   0.750530 0.263330 0.367210 -0.511274
O15   O     O_R   0.249470 0.736670 0.632790 -0.509674
O16   O     O_R   0.249470 0.263330 0.632790 -0.525575
O17   O     O_R   0.750530 0.736670 0.367210 -0.524781
O18   O     O_R   0.177260 0.690030 0.513710 -0.515827
O19   O     O_R   0.822740 0.309970 0.486290 -0.503605
O20   O     O_R   0.822740 0.690030 0.486290 -0.520050
O21   O     O_R   0.177260 0.309970 0.513710 -0.506205
O22   O     O_R   0.677260 0.190030 0.513710 -0.520624
O23   O     O_R   0.744960 0.869590 0.521520 -0.505702
O24   O     O_R   0.322740 0.809970 0.486290 -0.517409
O25   O     O_R   0.322740 0.190030 0.486290 -0.493437
O26   O     O_R   0.677260 0.809970 0.513710 -0.491995
O27   O     O_R   0.051640 0.926880 0.885090 -0.512152
O28   O     O_R   0.948360 0.073120 0.114910 -0.512275
O29   O     O_R   0.948360 0.926880 0.114910 -0.511762
O30   O     O_R   0.051640 0.073120 0.885090 -0.512093
O31   O     O_R   0.551640 0.426880 0.885090 -0.509474
O32   O     O_R   0.448360 0.573120 0.114910 -0.510400
O33   O     O_R   0.448360 0.426880 0.114910 -0.509633
O34   O     O_R   0.255040 0.130410 0.478480 -0.512986
O35   O     O_R   0.551640 0.573120 0.885090 -0.509548
O36   O     O_R   0.940620 0.926560 0.986760 -0.516748
O37   O     O_R   0.059380 0.073440 0.013240 -0.510866
O38   O     O_R   0.059380 0.926560 0.013240 -0.512224
O39   O     O_R   0.940620 0.073440 0.986760 -0.507989
O40   O     O_R   0.440620 0.426560 0.986760 -0.518475
O41   O     O_R   0.559380 0.573440 0.013240 -0.512063
O42   O     O_R   0.559380 0.426560 0.013240 -0.515518
O43   O     O_R   0.440620 0.573440 0.986760 -0.512714
O44   O     O_R   0.755040 0.369590 0.478480 -0.502485
O45   O     O_R   0.244960 0.630410 0.521520 -0.505166
O46   O     O_R   0.244960 0.369590 0.521520 -0.512718
O47   O     O_R   0.755040 0.630410 0.478480 -0.514515
O48   O     O_R   0.182050 0.796550 0.624440 -0.518486

loop_
_geom_bond_atom_site_label_1
_geom_bond_atom_site_label_2
_ccdc_geom_bond_type
C126  C127  S    
C27   C202  A    
C115  H76   S    
C17   C153  A    
C144  C195  S    
C116  H73   S    
C188  C191  S    
C50   C59   A    
C58   H92   S    
C59   H81   S    
Cu8   O22   S    
C52   C61   A    
C54   C63   A    
C144  O8    A    
Cu1   O1    S    
C184  C193  A    
Cu5   Cu8   S    
C36   H27   S    
C128  H118  S    
Cu4   O37   S    
C61   C63   A    
C131  H119  S    
C33   C147  A    
C5    H84   S    
C91   C96   A    
C34   C148  A    
C50   C90   A    
C162  C171  A    
Cu3   Cu4   S    
Cu7   O34   S    
C124  C158  A    
C70   C74   A    
C4    C12   A    
C24   C85   A    
C185  C194  A    
C88   C97   A    
C31   H22   S    
C117  H82   S    
C117  H80   S    
C198  C216  A    
C14   C121  S    
C49   C69   A    
C118  H79   S    
C3    C204  A    
C18   C152  A    
C122  H97   S    
C190  C199  S    
C110  H61   S    
C11   C20   A    
C150  C159  A    
C79   C109  S    
C100  H43   S    
C29   H20   S    
C137  C146  A    
C94   C208  S    
C98   H13   S    
C86   C90   A    
C71   C73   A    
C3    C169  A    
C111  H69   S    
C82   C91   A    
C51   C66   A    
C142  C151  A    
C1    C193  S    
C127  H110  S    
C52   C72   A    
C26   H17   S    
C163  C216  A    
C146  C154  A    
Cu7   O21   S    
C30   H21   S    
C164  C173  A    
C129  H115  S    
C168  C220  A    
C163  C172  A    
C213  O26   A    
C173  C182  A    
C11   C169  A    
C136  H8    S    
C114  H67   S    
C101  C115  S    
C18   C130  S    
C199  O17   A    
C79   C85   A    
C205  O18   A    
C41   C170  S    
C189  C197  A    
C66   C77   A    
C137  C160  A    
C57   C78   A    
Cu5   O19   S    
C56   C59   A    
C141  C156  A    
C213  O23   A    
Cu12  O35   S    
C60   H70   S    
C46   C103  S    
C8    C17   A    
C209  O12   A    
C1    O6    A    
C130  C131  S    
C28   H19   S    
C15   C160  A    
C80   C88   A    
C23   C32   A    
C139  C218  A    
C155  O13   A    
C32   H23   S    
C177  O15   A    
C130  H123  S    
C106  H52   S    
C84   C93   A    
C21   C196  A    
Cu9   O15   S    
C188  O16   A    
C86   C95   A    
C178  C186  A    
C24   C77   A    
Cu10  O7    S    
C179  C187  A    
C6    C163  A    
C10   C168  A    
C118  H77   S    
C33   H25   S    
C199  O3    A    
C4    C161  A    
C2    C81   A    
C20   C134  S    
C45   C174  S    
C58   C60   A    
C55   C71   A    
C2    C75   A    
C123  H107  S    
C78   C87   A    
Cu6   O20   S    
C135  C157  A    
C22   C197  A    
C67   C77   A    
C37   C150  A    
C40   O37   A    
C208  O46   A    
C136  H9    S    
C41   O27   A    
C180  C189  A    
C141  C220  A    
C116  H72   S    
C119  H96   S    
C9    H88   S    
C69   C76   A    
C85   C94   A    
C10   H89   S    
C40   O30   A    
C42   O39   A    
C46   C82   A    
C172  C181  A    
C134  H10   S    
Cu12  O40   S    
C144  O11   A    
C29   C38   A    
C62   C64   A    
C107  C108  S    
C111  C114  S    
C149  C158  A    
C104  H44   S    
C121  H101  S    
C47   O32   A    
C120  H93   S    
Cu2   Cu12  S    
C48   C67   A    
C29   C204  A    
C87   C96   A    
C181  C190  A    
C90   C111  S    
C72   C75   A    
C167  C219  A    
C141  C150  A    
C139  C148  A    
C8    H87   S    
C205  O45   A    
C125  H102  S    
C26   C201  A    
C191  C200  A    
Cu4   O28   S    
C44   C178  S    
C22   H14   S    
C65   C67   A    
C165  C174  A    
Cu2   O41   S    
C105  H53   S    
C100  H42   S    
C106  H50   S    
C133  H4    S    
C31   C145  A    
C99   H24   S    
C108  H56   S    
C211  O24   A    
C12   C119  S    
C196  C214  A    
Cu5   O2    S    
Cu10  O46   S    
C113  C117  S    
Cu9   O24   S    
C35   C100  S    
C38   C151  A    
C103  C104  S    
Cu8   O14   S    
C107  H60   S    
C167  C175  A    
C19   C132  S    
C168  C176  A    
C140  C152  A    
C83   C101  A    
C28   C203  A    
C87   C211  S    
C115  H75   S    
Cu4   O29   S    
C104  H45   S    
C142  C154  A    
C116  H74   S    
C131  H121  S    
C42   O28   A    
C170  C179  A    
C166  C189  S    
C44   O35   A    
C63   H37   S    
C78   C210  A    
C155  C194  S    
C117  C118  S    
C181  H32   S    
C28   C37   A    
C97   H2    S    
C148  C157  A    
C23   H15   S    
C50   C65   A    
C51   C79   A    
C8    C165  A    
C25   H16   S    
C9    C18   A    
Cu9   O6    S    
C184  H35   S    
C48   C113  A    
C51   C60   A    
C211  O1    A    
C12   C158  A    
C140  C149  A    
C47   C175  S    
C25   C33   A    
C82   C210  A    
Cu12  O31   S    
C164  C217  A    
C161  C214  A    
Cu7   O13   S    
C19   C156  A    
C187  C196  A    
C73   C74   A    
C125  H104  S    
C57   C105  S    
C209  O22   A    
C183  C192  A    
C122  H98   S    
C206  O19   A    
C176  C185  A    
C110  H62   S    
C23   C198  A    
C65   C76   A    
C102  H40   S    
C203  C220  A    
C201  C218  A    
C49   C101  A    
C45   O42   A    
C123  C125  S    
C182  H33   S    
C32   C146  A    
C126  H111  S    
C139  C153  A    
Cu3   O27   S    
C34   H26   S    
C43   O33   A    
Cu8   O44   S    
C127  H109  S    
Cu2   O32   S    
C138  C217  A    
Cu1   O9    S    
C135  C145  A    
C192  C201  A    
C124  C143  A    
C68   C107  S    
C93   C99   A    
C107  H58   S    
C81   C89   A    
Cu12  O43   S    
C128  C129  S    
C114  H68   S    
C200  C217  A    
C4    H83   S    
C95   C207  S    
C14   C157  A    
Cu6   O3    S    
C102  H39   S    
C38   H29   S    
C180  H31   S    
C53   C57   A    
C195  C204  A    
C193  C202  A    
C128  H117  S    
Cu11  O8    S    
Cu5   O10   S    
C112  C192  S    
C43   C176  S    
C140  C219  A    
Cu3   O39   S    
C10   C19   A    
C46   C54   A    
Cu7   O4    S    
C147  C156  A    
C5    C14   A    
C56   H103  S    
C20   C154  A    
C143  C152  A    
C88   C209  S    
C118  H78   S    
C137  C216  A    
C182  C191  A    
C47   O43   A    
C127  H108  S    
C190  C198  A    
C89   C213  S    
C44   O41   A    
C174  C183  A    
C119  C120  S    
C11   H90   S    
C17   C128  S    
C155  O7    A    
C27   C36   A    
C105  C106  S    
C13   C83   A    
C177  C187  S    
C5    C162  A    
Cu11  O47   S    
C25   C200  A    
C61   H59   S    
C109  C110  S    
C151  C160  A    
Cu9   O45   S    
C119  H95   S    
C129  H116  S    
C39   O36   A    
C102  H41   S    
C92   C206  S    
C30   C143  A    
C66   C69   A    
C136  H7    S    
Cu1   Cu9   S    
C212  O25   A    
C114  H66   S    
C45   O31   A    
C16   C126  S    
C115  C116  S    
C121  H100  S    
C175  C184  A    
C68   C80   A    
Cu3   O30   S    
C120  H94   S    
C7    H86   S    
C84   C113  A    
C37   H28   S    
C103  H47   S    
C93   C205  S    
C35   C81   A    
C95   C98   A    
C92   C98   A    
C43   O40   A    
C166  O2    A    
C124  C214  A    
C83   C92   A    
C41   O38   A    
C131  H120  S    
C183  H34   S    
C15   C123  S    
C74   C210  A    
C96   H114  S    
C27   H18   S    
C40   C173  S    
C179  H30   S    
C36   C149  A    
C120  H91   S    
Cu10  O16   S    
Cu6   Cu11  S    
Cu2   O42   S    
C130  H122  S    
C106  H51   S    
C133  H3    S    
C132  H6    S    
C6    C15   A    
C138  C159  A    
C26   C34   A    
C135  C215  A    
C132  C133  S    
C54   C70   A    
C13   C86   A    
C207  O47   A    
C206  O44   A    
C21   C30   A    
C52   C68   A    
Cu10  O25   S    
C145  C153  A    
C188  O4    A    
C16   C159  A    
Cu4   O38   S    
Cu8   O5    S    
C3    C142  A    
C62   H48   S    
C162  C215  A    
C166  O14   A    
C22   C31   A    
C7    C164  A    
C35   C55   A    
C112  O5    A    
C186  C195  A    
C9    C167  A    
C42   C171  S    
C104  H46   S    
Cu11  O26   S    
C134  C136  S    
C49   C58   A    
C89   C97   A    
C202  C219  A    
C132  H5    S    
C108  H57   S    
C186  H38   S    
C13   C76   A    
C138  C147  A    
C55   C64   A    
Cu7   Cu10  S    
C100  C102  S    
C121  C122  S    
Cu11  O17   S    
C165  C218  A    
Cu1   O48   S    
C21   H12   S    
C161  C170  A    
C6    H85   S    
Cu3   O36   S    
C109  H65   S    
C208  O21   A    
Cu6   O23   S    
C171  C180  A    
C169  C178  A    
C48   C56   A    
Cu5   O12   S    
C125  H105  S    
C7    C16   A    
C1    O9    A    
C53   C73   A    
C91   C212  S    
C197  C215  A    
C122  H99   S    
C129  H113  S    
C109  H64   S    
C110  H63   S    
C105  H54   S    
C133  H124  S    
C207  O20   A    
C24   C84   A    
C64   H1    S    
C108  H55   S    
C71   C75   A    
C212  O34   A    
C126  H112  S    
C94   C99   A    
C111  H71   S    
C194  C203  A    
C112  O10   A    
C134  H11   S    
C53   C62   A    
C2    C80   A    
Cu1   O18   S    
C177  O48   A    
C123  H106  S    
Cu2   O33   S    
C39   C172  S    
C70   C72   A    
Cu6   O11   S    
C39   O29   A    
C103  H49   S    
C185  H36   S    
