data_str_m12_o22_o22_f0_bcu.sym.244
_audit_creation_date              2013-03-05T15:48:51-0500
_audit_creation_method            fapswitch 2.2
_symmetry_space_group_name_H-M    P1
_symmetry_Int_Tables_number       1
_space_group_crystal_system       triclinic
_cell_length_a                    17.65252
_cell_length_b                    24.621822
_cell_length_c                    15.060751
_cell_angle_alpha                 90.012378
_cell_angle_beta                  126.113954
_cell_angle_gamma                 89.968237
_cell_volume                      5288.1313309

loop_
_atom_site_label
_atom_site_type_symbol
_atom_site_description
_atom_site_fract_x
_atom_site_fract_y
_atom_site_fract_z
_atom_type_partial_charge
C1    C     C_R   0.915493 0.860239 0.089193 0.006117
C2    C     C_R   0.914377 0.138925 0.089183 0.014925
C3    C     C_R   0.414295 0.361160 0.089131 0.018528
C4    C     C_R   0.415664 0.639949 0.089209 0.003154
H1    H     H_    0.948347 0.846491 0.172180 0.109400
H2    H     H_    0.947091 0.152826 0.172035 0.115268
H3    H     H_    0.446956 0.347330 0.172008 0.109098
H4    H     H_    0.448561 0.653794 0.172156 0.116058
N1    N     N_R   0.950530 0.896220 0.057200 -0.048622
N2    N     N_R   0.950530 0.103780 0.057200 -0.046797
N3    N     N_R   0.450530 0.396220 0.057200 -0.047709
N4    N     N_R   0.450530 0.603780 0.057200 -0.047436
C5    C     C_R   0.821781 0.136616 0.904062 -0.135717
C6    C     C_R   0.823128 0.862278 0.904085 -0.122195
C7    C     C_R   0.323158 0.637795 0.904169 -0.141831
C8    C     C_R   0.321827 0.363379 0.903969 -0.114113
H5    H     H_    0.769582 0.145290 0.818097 0.101364
H6    H     H_    0.771174 0.853501 0.818057 0.126502
H7    H     H_    0.271228 0.646685 0.818220 0.101374
H8    H     H_    0.269580 0.354844 0.817911 0.127074
N5    N     N_R   0.893330 0.103780 0.942800 -0.046497
N6    N     N_R   0.893330 0.896220 0.942800 -0.050882
N7    N     N_R   0.393330 0.603780 0.942800 -0.047617
N8    N     N_R   0.393330 0.396220 0.942800 -0.049465
C9    C     C_R   0.742220 0.954011 0.699498 -0.098055
C10   C     C_R   0.739224 0.044979 0.699791 -0.040251
C11   C     C_R   0.242292 0.454088 0.699306 -0.098444
C12   C     C_R   0.239159 0.545047 0.699970 -0.039382
H9    H     H_    0.732188 0.912449 0.672063 0.182456
H10   H     H_    0.722576 0.086679 0.672619 0.151717
H11   H     H_    0.232362 0.412590 0.671544 0.182564
H12   H     H_    0.222415 0.586786 0.673104 0.150672
N9    N     N_R   0.818150 0.971400 0.792440 -0.060104
N10   N     N_R   0.818150 0.028600 0.792440 -0.058529
N11   N     N_R   0.318150 0.471400 0.792440 -0.058501
N12   N     N_R   0.318150 0.528600 0.792440 -0.059936
C13   C     C_R   0.985148 0.045341 0.253884 -0.099677
C14   C     C_R   0.985713 0.954371 0.254064 -0.121492
C15   C     C_R   0.485311 0.545673 0.253609 -0.120608
C16   C     C_R   0.484963 0.454712 0.253649 -0.101393
H13   H     H_    0.986004 0.086268 0.279069 0.096379
H14   H     H_    0.988342 0.913308 0.279321 0.094991
H15   H     H_    0.487748 0.586746 0.278747 0.097100
H16   H     H_    0.486002 0.413812 0.279029 0.094330
N13   N     N_R   0.025710 0.028600 0.207560 -0.054328
N14   N     N_R   0.025710 0.971400 0.207560 -0.053549
N15   N     N_R   0.525710 0.528600 0.207560 -0.053031
N16   N     N_R   0.525710 0.471400 0.207560 -0.054874
C17   C     C_R   0.834765 0.839829 0.994800 0.074784
C18   C     C_R   0.832833 0.158552 0.994751 0.054959
C19   C     C_R   0.332866 0.341431 0.994654 0.067494
C20   C     C_R   0.334830 0.660277 0.994876 0.059545
C21   C     C_R   0.689858 0.998924 0.641199 0.035765
C22   C     C_R   0.189848 0.499025 0.641201 0.034399
C23   C     C_R   0.954593 0.999771 0.278175 0.173776
C24   C     C_R   0.454180 0.500306 0.277685 0.173826
C25   C     C_R   0.264165 0.954503 0.234794 -0.137706
C26   C     C_R   0.265552 0.044730 0.236112 -0.147225
C27   C     C_R   0.764204 0.454492 0.235046 -0.142691
C28   C     C_R   0.765538 0.544722 0.236012 -0.144324
H17   H     H_    0.283162 0.912902 0.237220 0.150669
H18   H     H_    0.287821 0.086023 0.243395 0.146551
H19   H     H_    0.783280 0.412893 0.238027 0.151695
H20   H     H_    0.787762 0.586020 0.242925 0.145482
N17   N     N_R   0.181850 0.971400 0.207560 -0.046293
N18   N     N_R   0.181850 0.028600 0.207560 -0.044761
N19   N     N_R   0.681850 0.471400 0.207560 -0.046626
N20   N     N_R   0.681850 0.528600 0.207560 -0.044510
C29   C     C_R   0.950848 0.045070 0.695438 0.317731
C30   C     C_R   0.950703 0.954837 0.695478 0.303925
C31   C     C_R   0.451079 0.545250 0.695693 0.321633
C32   C     C_R   0.451702 0.454981 0.695803 0.302537
N21   N     N_R   0.974290 0.028600 0.792440 -0.115645
N22   N     N_R   0.974290 0.971400 0.792440 -0.116033
N23   N     N_R   0.474290 0.528600 0.792440 -0.115840
N24   N     N_R   0.474290 0.471400 0.792440 -0.114949
C33   C     C_R   0.048996 0.846088 0.911053 -0.138253
C34   C     C_R   0.051114 0.153336 0.910574 -0.158677
C35   C     C_R   0.550709 0.346645 0.910369 -0.146704
C36   C     C_R   0.549570 0.653874 0.911289 -0.148069
H21   H     H_    0.998227 0.831185 0.829082 0.197601
H22   H     H_    0.004494 0.167266 0.827015 0.199742
H23   H     H_    0.503858 0.332815 0.826786 0.200878
H24   H     H_    0.499180 0.668925 0.829352 0.197613
N25   N     N_R   0.049470 0.896220 0.942800 -0.067171
N26   N     N_R   0.049470 0.103780 0.942800 -0.065238
N27   N     N_R   0.549470 0.396220 0.942800 -0.066497
N28   N     N_R   0.549470 0.603780 0.942800 -0.065842
C37   C     C_R   0.143795 0.152783 0.092690 0.288501
C38   C     C_R   0.141824 0.846669 0.092560 0.280334
C39   C     C_R   0.642994 0.652982 0.092950 0.286993
C40   C     C_R   0.642989 0.346945 0.092337 0.282244
N29   N     N_R   0.106670 0.103780 0.057200 -0.103104
N30   N     N_R   0.106670 0.896220 0.057200 -0.106304
N31   N     N_R   0.606670 0.603780 0.057200 -0.104725
N32   N     N_R   0.606670 0.396220 0.057200 -0.104680
Ni1   Ni    Ni4+2 0.065600 0.934400 0.131190 0.283637
Ni2   Ni    Ni4+2 0.065600 0.065600 0.131190 0.288623
Ni3   Ni    Ni4+2 0.565600 0.434400 0.131190 0.286757
Ni4   Ni    Ni4+2 0.565600 0.565600 0.131190 0.285227
Ni5   Ni    Ni4+2 0.934400 0.065600 0.868810 0.261529
Ni6   Ni    Ni4+2 0.934400 0.934400 0.868810 0.256936
Ni7   Ni    Ni4+2 0.434400 0.565600 0.868810 0.258102
Ni8   Ni    Ni4+2 0.434400 0.434400 0.868810 0.261531
C41   C     C_R   0.321386 0.999168 0.263504 0.046957
C42   C     C_R   0.821385 0.499151 0.263590 0.048410
C43   C     C_R   0.930162 0.999931 0.628588 -0.237839
C44   C     C_R   0.431169 0.500142 0.629066 -0.243577
C45   C     C_R   0.109065 0.814165 0.001853 -0.062467
C46   C     C_R   0.111672 0.185041 0.001699 -0.081680
C47   C     C_R   0.610819 0.314743 0.001261 -0.064234
C48   C     C_R   0.610268 0.685538 0.002332 -0.082154
C49   C     C_3   0.877515 0.051290 0.353143 0.199586
C50   C     C_3   0.881409 0.947635 0.355151 0.195805
C51   C     C_3   0.380803 0.552335 0.354780 0.191474
C52   C     C_3   0.378170 0.448665 0.353613 0.211978
H25   H     H_    0.921762 0.088020 0.373839 0.083969
H26   H     H_    0.916750 0.910481 0.354680 0.064962
H27   H     H_    0.415488 0.589592 0.353545 0.068071
H28   H     H_    0.422843 0.412085 0.374544 0.079722
C53   C     C_3   0.860294 0.045244 0.442623 -0.380963
C54   C     C_3   0.888589 0.945053 0.462523 -0.416182
C55   C     C_3   0.388589 0.555005 0.462570 -0.412796
C56   C     C_3   0.361237 0.454718 0.443300 -0.401323
H29   H     H_    0.786207 0.034248 0.406026 0.227240
H30   H     H_    0.821992 0.932707 0.448837 0.235029
H31   H     H_    0.322164 0.567311 0.449458 0.247444
H32   H     H_    0.287110 0.465557 0.406891 0.216010
H33   H     H_    0.871005 0.085685 0.478876 0.227924
H34   H     H_    0.940842 0.912944 0.511863 0.214235
H35   H     H_    0.440742 0.587177 0.511534 0.211597
H36   H     H_    0.372440 0.414297 0.479795 0.227138
H37   H     H_    0.076973 0.035037 0.473696 0.197480
H38   H     H_    0.071339 0.962772 0.482829 0.198150
H39   H     H_    0.570903 0.537847 0.481953 0.200395
H40   H     H_    0.577426 0.465610 0.473322 0.195936
H41   H     H_    0.050563 0.050520 0.599845 0.213245
H42   H     H_    0.075507 0.979734 0.632345 0.181661
H43   H     H_    0.575943 0.520842 0.632013 0.180847
H44   H     H_    0.551727 0.449996 0.599978 0.214500
C57   C     C_3   0.033416 0.001391 0.470948 -0.540211
C58   C     C_3   0.533530 0.499086 0.470525 -0.541705
C59   C     C_3   0.933926 0.000028 0.359416 0.039343
C60   C     C_3   0.433831 0.500097 0.359193 0.038936
C61   C     C_3   0.924848 0.999965 0.526304 0.238480
C62   C     C_3   0.425510 0.500167 0.526602 0.247890
C63   C     C_3   0.026787 0.008875 0.565787 -0.384033
C64   C     C_3   0.527409 0.491562 0.565715 -0.383518
C65   C     C_3   0.694119 0.218186 0.874826 -0.416642
C66   C     C_3   0.696789 0.779990 0.875814 -0.400505
C67   C     C_3   0.194824 0.719299 0.875233 -0.421867
C68   C     C_3   0.195634 0.281334 0.875373 -0.395401
H45   H     H_    0.721475 0.233385 0.829598 0.164956
H46   H     H_    0.726797 0.763768 0.833921 0.184352
H47   H     H_    0.221585 0.734922 0.829644 0.164534
H48   H     H_    0.225743 0.265626 0.833249 0.184513
H49   H     H_    0.647524 0.183425 0.825395 0.178842
H50   H     H_    0.651019 0.814765 0.825141 0.179960
H51   H     H_    0.148907 0.684277 0.826070 0.179614
H52   H     H_    0.149342 0.315990 0.824911 0.178711
C69   C     C_3   0.135294 0.762381 0.879414 -0.404424
C70   C     C_3   0.136348 0.237996 0.879302 -0.415471
C71   C     C_3   0.635462 0.261864 0.878857 -0.408518
C72   C     C_3   0.636703 0.737202 0.879875 -0.411212
H53   H     H_    0.560510 0.249249 0.824858 0.183076
H54   H     H_    0.562135 0.750571 0.825887 0.179662
H55   H     H_    0.060555 0.749381 0.825334 0.183147
H56   H     H_    0.061611 0.251097 0.825773 0.179418
H57   H     H_    0.141716 0.800733 0.845160 0.216787
H58   H     H_    0.142470 0.199889 0.844133 0.211873
H59   H     H_    0.642574 0.299938 0.844413 0.211198
H60   H     H_    0.642463 0.698759 0.845330 0.217543
H61   H     H_    0.274044 0.830274 0.030629 0.178691
H62   H     H_    0.274481 0.168885 0.034186 0.164695
H63   H     H_    0.775641 0.329107 0.030355 0.178994
H64   H     H_    0.773509 0.667833 0.035595 0.164133
C73   C     C_3   0.333948 0.748362 0.072270 0.536372
C74   C     C_3   0.334454 0.252370 0.068827 0.546377
C75   C     C_3   0.833529 0.246762 0.072030 0.534506
C76   C     C_3   0.835062 0.750955 0.069393 0.548041
C77   C     C_3   0.720917 0.172233 0.037609 -0.518589
C78   C     C_3   0.724306 0.826341 0.039460 -0.543260
C79   C     C_3   0.223258 0.672915 0.038476 -0.534015
C80   C     C_3   0.222379 0.327010 0.039106 -0.527787
C81   C     C_3   0.772202 0.198861 0.993290 0.082049
C82   C     C_3   0.774176 0.799423 0.993751 0.100339
C83   C     C_3   0.273622 0.700235 0.993633 0.088818
C84   C     C_3   0.272744 0.300750 0.993421 0.093170
H65   H     H_    0.773149 0.154841 0.120422 0.233032
H66   H     H_    0.777729 0.842677 0.122901 0.228178
H67   H     H_    0.276220 0.656096 0.121650 0.225558
H68   H     H_    0.275290 0.343898 0.122180 0.234414
H69   H     H_    0.676968 0.137571 0.984318 0.206679
H70   H     H_    0.681605 0.861633 0.987382 0.206823
H71   H     H_    0.180362 0.637851 0.985754 0.208936
H72   H     H_    0.178612 0.361943 0.986636 0.204704
C85   C     C_3   0.167169 0.771175 0.999910 0.118815
C86   C     C_3   0.168542 0.228655 0.999937 0.146861
C87   C     C_3   0.667510 0.271002 0.999335 0.117274
C88   C     C_3   0.668373 0.728434 0.000446 0.149230
C89   C     C_3   0.270537 0.792125 0.067423 -0.522899
C90   C     C_3   0.272191 0.208405 0.067726 -0.570886
C91   C     C_3   0.771175 0.291189 0.066994 -0.522190
C92   C     C_3   0.771877 0.707658 0.068669 -0.572541
C93   C     C_3   0.159338 0.714553 0.041990 0.244179
C94   C     C_3   0.159505 0.284698 0.042511 0.234821
C95   C     C_3   0.658157 0.214760 0.041331 0.239047
C96   C     C_3   0.660181 0.784882 0.042370 0.238895
H73   H     H_    0.583869 0.201389 0.982889 0.073437
H74   H     H_    0.586290 0.798923 0.983564 0.064209
H75   H     H_    0.085423 0.700539 0.983550 0.074094
H76   H     H_    0.085266 0.298250 0.984261 0.063842
H77   H     H_    0.371754 0.731712 0.157047 0.100234
H78   H     H_    0.375952 0.268125 0.154511 0.086692
H79   H     H_    0.870702 0.230184 0.156782 0.100591
H80   H     H_    0.877054 0.766867 0.154980 0.085393
H81   H     H_    0.297500 0.802977 0.152939 0.204539
H82   H     H_    0.299723 0.199441 0.154076 0.206633
H83   H     H_    0.798282 0.302151 0.152449 0.206290
H84   H     H_    0.799160 0.699081 0.155107 0.206083
C97   C     C_3   0.453699 0.939080 0.402166 -0.514304
C98   C     C_3   0.486663 0.022366 0.331744 -0.582102
C99   C     C_3   0.953767 0.439117 0.402237 -0.512303
C100  C     C_3   0.986575 0.522400 0.331744 -0.582339
H85   H     H_    0.407720 0.920212 0.421274 0.218261
H86   H     H_    0.458892 0.062554 0.293018 0.173924
H87   H     H_    0.907881 0.420226 0.421455 0.217867
H88   H     H_    0.958626 0.562504 0.292679 0.173521
H89   H     H_    0.447787 0.913650 0.337103 0.165507
H90   H     H_    0.481621 0.996874 0.267406 0.180430
H91   H     H_    0.947823 0.413684 0.337159 0.165487
H92   H     H_    0.981707 0.496818 0.267616 0.179431
C101  C     C_3   0.554737 0.938344 0.504558 0.465166
C102  C     C_3   0.591355 0.021947 0.438365 0.486335
C103  C     C_3   0.054824 0.438435 0.504538 0.466869
C104  C     C_3   0.091235 0.522174 0.438416 0.495419
H93   H     H_    0.595183 0.918600 0.478058 0.077459
H94   H     H_    0.628328 0.992051 0.420882 0.075356
H95   H     H_    0.095258 0.418782 0.477937 0.073035
H96   H     H_    0.128486 0.492436 0.421054 0.069470
H97   H     H_    0.385849 0.015500 0.474429 0.170318
H98   H     H_    0.408231 0.075302 0.426102 0.188010
H99   H     H_    0.885774 0.515467 0.474455 0.170485
H100  H     H_    0.908081 0.575292 0.426117 0.187982
H101  H     H_    0.536253 0.024315 0.628363 0.164518
H102  H     H_    0.556990 0.077385 0.568971 0.177154
H103  H     H_    0.036176 0.524259 0.628423 0.164826
H104  H     H_    0.056840 0.577418 0.569133 0.177060
C105  C     C_3   0.431305 0.032670 0.452744 -0.371808
C106  C     C_3   0.931222 0.532670 0.452790 -0.371935
C107  C     C_3   0.421785 0.998313 0.359500 0.246240
C108  C     C_3   0.921760 0.498332 0.359560 0.243853
C109  C     C_3   0.594563 0.998234 0.537946 0.011836
C110  C     C_3   0.094529 0.498346 0.537972 0.007670
C111  C     C_3   0.532209 0.034680 0.554245 -0.422433
C112  C     C_3   0.032120 0.534699 0.554329 -0.422485
N33   N     N_R   0.788308 0.060599 0.244253 0.261694
O1    O     O_R   0.782313 0.052764 0.154893 -0.396404
O2    O     O_R   0.722620 0.089059 0.236853 -0.334567
N34   N     N_R   0.784110 0.945773 0.255219 0.272554
O3    O     O_R   0.768694 0.940350 0.159948 -0.388230
O4    O     O_R   0.712485 0.949303 0.259048 -0.356958
N35   N     N_R   0.283259 0.553783 0.255263 0.271466
O5    O     O_R   0.267201 0.558739 0.159582 -0.387752
O6    O     O_R   0.212034 0.550545 0.259893 -0.353940
N36   N     N_R   0.288944 0.439006 0.244930 0.261362
O7    O     O_R   0.282829 0.446399 0.155395 -0.398539
O8    O     O_R   0.223507 0.410587 0.238070 -0.330749
O9    O     O_3   0.407789 0.768898 0.068913 -0.564937
C113  C     C_3   0.379264 0.787024 0.964610 -0.068188
H105  H     H_    0.312325 0.809900 0.919002 0.092818
H106  H     H_    0.376702 0.752429 0.915726 0.113872
H107  H     H_    0.433331 0.815355 0.976474 0.171214
O10   O     O_3   0.404163 0.235936 0.054117 -0.581864
C114  C     C_3   0.379696 0.192127 0.981391 -0.063032
H108  H     H_    0.304729 0.190966 0.911150 0.089825
H109  H     H_    0.400347 0.153247 0.027493 0.142282
H110  H     H_    0.420283 0.195780 0.946911 0.152349
O11   O     O_3   0.907991 0.266421 0.068968 -0.565928
C115  C     C_3   0.880073 0.284543 0.964883 -0.067864
H111  H     H_    0.813478 0.307746 0.919062 0.092950
H112  H     H_    0.877183 0.249877 0.915934 0.115567
H113  H     H_    0.934631 0.312573 0.977159 0.170648
O12   O     O_3   0.904264 0.733745 0.054390 -0.581015
C116  C     C_3   0.879300 0.689316 0.982880 -0.066310
H114  H     H_    0.804428 0.688501 0.912256 0.090539
H115  H     H_    0.898960 0.650750 0.029847 0.141475
H116  H     H_    0.920413 0.691798 0.948910 0.153639
N37   N     N_R   0.181653 0.715607 0.152397 0.271471
O13   O     O_R   0.267247 0.723925 0.238309 -0.358326
O14   O     O_R   0.120660 0.696863 0.166729 -0.309266
N38   N     N_R   0.181990 0.282907 0.152986 0.276469
O15   O     O_R   0.268423 0.277681 0.239233 -0.348724
O16   O     O_R   0.118673 0.297575 0.166648 -0.277770
N39   N     N_R   0.680452 0.216361 0.151693 0.276259
O17   O     O_R   0.766753 0.221927 0.237997 -0.345712
O18   O     O_R   0.617182 0.201363 0.165185 -0.298679
N40   N     N_R   0.681925 0.783753 0.152535 0.271746
O19   O     O_R   0.767703 0.776636 0.239033 -0.359198
O20   O     O_R   0.619699 0.801255 0.165897 -0.287984
O21   O     O_3   0.568104 0.901944 0.586701 -0.607796
C117  C     C_3   0.533316 0.919971 0.645164 -0.155295
H117  H     H_    0.464741 0.940867 0.593310 0.127959
H118  H     H_    0.586610 0.945278 0.716090 0.136013
H119  H     H_    0.522119 0.883840 0.680073 0.159718
O22   O     O_3   0.646661 0.070122 0.467593 -0.611275
C118  C     C_3   0.596833 0.119030 0.421182 -0.040071
H120  H     H_    0.538721 0.124068 0.429269 0.093054
H121  H     H_    0.571592 0.122333 0.334165 0.168719
H122  H     H_    0.645953 0.153277 0.466180 0.186828
O23   O     O_3   0.068328 0.401985 0.586688 -0.607309
C119  C     C_3   0.033530 0.419917 0.645198 -0.155168
H123  H     H_    0.964959 0.440823 0.593423 0.127712
H124  H     H_    0.086822 0.445186 0.716201 0.135936
H125  H     H_    0.022300 0.383741 0.679962 0.159608
O24   O     O_3   0.146134 0.570521 0.467654 -0.604520
C120  C     C_3   0.095928 0.619302 0.420993 -0.031722
H126  H     H_    0.037633 0.624124 0.428809 0.088657
H127  H     H_    0.070878 0.622614 0.334053 0.168401
H128  H     H_    0.144708 0.653678 0.465995 0.185091
N41   N     N_R   0.930332 0.100426 0.661830 0.216681
O25   O     O_R   0.990270 0.129494 0.658749 -0.457765
O26   O     O_R   0.858144 0.123749 0.648443 -0.420067
N42   N     N_R   0.930128 0.899411 0.662169 0.215536
O27   O     O_R   0.848192 0.879447 0.624604 -0.427505
O28   O     O_R   0.996269 0.867538 0.679033 -0.464186
N43   N     N_R   0.428540 0.600511 0.661625 0.217271
O29   O     O_R   0.493354 0.632884 0.676514 -0.464769
O30   O     O_R   0.348940 0.620542 0.633072 -0.411823
N44   N     N_R   0.433654 0.399471 0.662963 0.213398
O31   O     O_R   0.360383 0.375467 0.645442 -0.432871
O32   O     O_R   0.495396 0.371255 0.661807 -0.458255
N45   N     N_R   0.168498 0.173209 0.195568 0.249060
O33   O     O_R   0.254855 0.171720 0.282735 -0.400012
O34   O     O_R   0.103036 0.187936 0.205282 -0.347289
N46   N     N_R   0.163423 0.826268 0.194077 0.247766
O35   O     O_R   0.097526 0.805272 0.197186 -0.347582
O36   O     O_R   0.247428 0.830721 0.284786 -0.391391
N47   N     N_R   0.666097 0.673265 0.195214 0.248662
O37   O     O_R   0.751201 0.669912 0.284407 -0.400590
O38   O     O_R   0.600465 0.692327 0.200948 -0.342213
N48   N     N_R   0.667119 0.326396 0.194910 0.248169
O39   O     O_R   0.601381 0.310838 0.203488 -0.353796
O40   O     O_R   0.753244 0.327866 0.282589 -0.389577

loop_
_geom_bond_atom_site_label_1
_geom_bond_atom_site_label_2
_geom_bond_distance
_ccdc_geom_bond_type
N24   Ni8   1.898575 S    
C86   C94   1.568626 S    
C45   C85   1.485741 S    
C96   N40   1.466356 S    
C35   N27   1.319588 A    
O21   C117  1.409365 S    
C65   C81   1.552492 S    
N4    N7    1.391891 A    
O12   C116  1.411152 S    
C77   C95   1.548828 S    
C9    C21   1.375060 A    
C30   C43   1.395906 A    
H102  C111  1.110040 S    
C93   H75   1.114817 S    
C106  C108  1.561221 S    
N32   Ni3   1.897948 S    
C97   H85   1.110483 S    
H61   C89   1.110822 S    
O10   C114  1.411405 S    
C42   C108  1.486650 S    
C65   H45   1.106928 S    
C110  C112  1.547336 S    
C104  O24   1.431121 S    
H39   C58   1.114666 S    
N7    Ni7   1.897948 S    
C17   C82   1.454372 S    
C68   H48   1.109822 S    
N42   O27   1.299908 A    
C67   C69   1.519929 S    
C30   N22   1.324916 A    
C78   H70   1.114053 S    
C20   C83   1.452823 S    
C67   H47   1.106878 S    
C4    N4    1.324107 A    
C66   H50   1.114006 S    
C36   H24   1.075780 S    
C74   C84   1.560846 S    
N21   Ni5   1.897962 S    
N28   N31   1.391891 A    
C88   C96   1.567904 S    
H99   C106  1.112911 S    
C31   C44   1.395796 A    
C36   N28   1.322020 A    
N23   Ni7   1.897962 S    
C91   H83   1.110079 S    
C100  H88   1.105508 S    
C44   C62   1.486489 S    
N2    N5    1.391891 A    
C9    H9    1.078434 S    
C27   C42   1.379221 A    
C51   C55   1.547770 S    
N44   O31   1.300118 A    
C11   H11   1.078498 S    
N9    Ni6   1.892113 S    
C73   H77   1.113159 S    
C12   H12   1.079868 S    
H97   C105  1.112920 S    
N11   Ni8   1.892113 S    
C53   H33   1.097087 S    
C12   C22   1.384775 A    
N48   O39   1.298950 A    
N30   Ni1   1.897948 S    
C11   N11   1.314758 A    
N45   O33   1.299823 A    
O24   C120  1.409574 S    
C120  H128  1.108979 S    
C7    H7    1.079339 S    
N23   N24   1.408368 A    
C40   N48   1.431199 S    
C34   H22   1.075947 S    
C15   C24   1.384552 A    
C8    H8    1.079650 S    
C36   C48   1.380076 A    
O22   C118  1.409543 S    
C5    N5    1.311363 A    
C21   C109  1.471304 S    
C105  C111  1.517351 S    
C113  H106  1.109132 S    
N40   O19   1.301975 A    
C13   N13   1.325808 A    
C15   N15   1.322438 A    
N35   O6    1.302097 A    
C98   C102  1.579835 S    
C71   H53   1.113729 S    
H98   C105  1.111669 S    
C103  C110  1.582901 S    
N46   O35   1.299035 A    
C40   C47   1.383631 A    
C25   H17   1.071532 S    
C70   C86   1.568358 S    
C27   H19   1.070638 S    
C28   H20   1.072811 S    
C50   C59   1.568040 S    
N38   O16   1.301008 A    
C116  H115  1.110417 S    
H38   C57   1.114671 S    
C78   C96   1.544380 S    
C93   N37   1.465823 S    
C3    N3    1.322491 A    
C57   C63   1.511524 S    
C94   H76   1.114813 S    
C32   N44   1.424282 S    
N41   O25   1.300991 A    
N33   O2    1.301858 A    
C78   H66   1.110672 S    
C95   N39   1.465605 S    
C48   C88   1.484580 S    
C99   C108  1.558688 S    
C8    C19   1.371806 A    
C29   C43   1.395990 A    
N39   O18   1.301195 A    
C53   H29   1.112698 S    
H101  C111  1.105659 S    
C52   N36   1.475741 S    
C102  H94   1.113134 S    
C99   H87   1.110426 S    
C40   N32   1.327598 A    
C119  H123  1.106810 S    
C56   H36   1.097090 S    
N3    Ni3   1.893408 S    
N33   O1    1.300648 A    
C101  H93   1.113899 S    
C19   C84   1.451870 S    
C2    C18   1.383684 A    
C27   N19   1.322165 A    
C52   C60   1.574844 S    
C32   C44   1.395931 A    
C86   C90   1.560716 S    
C69   H57   1.113542 S    
H103  C112  1.105624 S    
C29   N41   1.424339 S    
C33   N25   1.321859 A    
C101  O21   1.430236 S    
C22   C110  1.471371 S    
C106  C112  1.517490 S    
C117  H118  1.109108 S    
H43   C64   1.114782 S    
C23   C59   1.468489 S    
C14   C23   1.384731 A    
C114  H110  1.108936 S    
C115  H111  1.108029 S    
N43   O30   1.299858 A    
C56   C62   1.560894 S    
C37   C46   1.383591 A    
C52   H28   1.112982 S    
C67   H51   1.114388 S    
C39   C48   1.381828 A    
N20   Ni4   1.892112 S    
C94   N38   1.466088 S    
N26   N29   1.391891 A    
C55   H31   1.110132 S    
C88   C92   1.562673 S    
N37   O13   1.301834 A    
C33   C45   1.379315 A    
C28   N20   1.333405 A    
C69   H55   1.113615 S    
C76   C82   1.559803 S    
C49   H25   1.112997 S    
C75   C91   1.521220 S    
C10   H10   1.079851 S    
C51   H27   1.109410 S    
C118  H120  1.108907 S    
C79   C93   1.547928 S    
C73   C89   1.523745 S    
C72   H60   1.113093 S    
C71   H59   1.113903 S    
C51   C60   1.568530 S    
C97   C101  1.522286 S    
C99   C103  1.522018 S    
N34   O3    1.300129 A    
C73   O9    1.426791 S    
C66   C82   1.546011 S    
N19   Ni3   1.892968 S    
C66   C72   1.521976 S    
C119  H125  1.108865 S    
C56   H32   1.112644 S    
C26   C41   1.385540 A    
N18   Ni2   1.892112 S    
N40   O20   1.301088 A    
C65   H49   1.114446 S    
C37   N29   1.326127 A    
C14   N14   1.322206 A    
C100  C108  1.549713 S    
C39   N31   1.327510 A    
C5    C18   1.371506 A    
C13   C23   1.384590 A    
C16   H16   1.073520 S    
C49   C53   1.553633 S    
C98   H90   1.113082 S    
N42   O28   1.301186 A    
C75   H79   1.113140 S    
C95   H73   1.114698 S    
C38   C45   1.382025 A    
C104  C110  1.579030 S    
C102  O22   1.431212 S    
N25   Ni6   1.892528 S    
C9    N9    1.314529 A    
C26   H18   1.072313 S    
C31   N43   1.425457 S    
C46   C86   1.481306 S    
N21   N22   1.408368 A    
H64   C92   1.107738 S    
C85   C93   1.571083 S    
N11   N12   1.408368 A    
C115  H113  1.108513 S    
C68   C84   1.545930 S    
C28   C42   1.385528 A    
N35   O5    1.300132 A    
N13   N14   1.408368 A    
C67   C83   1.552651 S    
N44   O32   1.300909 A    
C92   H84   1.110043 S    
N12   Ni7   1.892969 S    
C1    H1    1.076368 S    
C3    H3    1.076097 S    
N13   Ni2   1.898576 S    
C57   C59   1.558744 S    
N48   O40   1.299983 A    
H62   C90   1.107905 S    
C80   C94   1.545376 S    
C78   C82   1.549730 S    
C120  H127  1.110925 S    
H40   C58   1.114635 S    
C77   H65   1.110548 S    
C16   C24   1.384791 A    
C79   H71   1.113970 S    
O11   C115  1.410229 S    
C80   H68   1.110565 S    
C29   N21   1.325678 A    
C76   O12   1.430966 S    
C77   H69   1.113935 S    
C32   N24   1.325331 A    
N22   Ni6   1.898575 S    
O9    C113  1.409975 S    
C87   C91   1.561029 S    
C113  H107  1.108640 S    
C49   N33   1.475578 S    
C61   C63   1.542365 S    
C99   H91   1.114613 S    
C38   N30   1.329314 A    
C62   C64   1.542093 S    
N45   O34   1.298861 A    
N10   Ni5   1.892969 S    
C74   H78   1.112729 S    
N19   N20   1.408368 A    
C76   H80   1.112781 S    
C1    N1    1.323488 A    
N46   O36   1.299779 A    
N39   O17   1.301946 A    
C3    C19   1.384299 A    
N31   Ni4   1.898584 S    
C80   H72   1.114021 S    
C49   C59   1.575224 S    
C116  H114  1.105198 S    
C79   C83   1.551655 S    
N47   O37   1.299720 A    
C70   H58   1.113408 S    
C55   C62   1.560933 S    
C33   H21   1.076040 S    
C7    C20   1.372279 A    
N14   Ni1   1.897963 S    
C30   N42   1.425277 S    
N16   Ni3   1.897963 S    
N1    Ni1   1.893408 S    
C52   C56   1.553050 S    
C55   H35   1.104142 S    
C103  H95   1.113877 S    
H41   C63   1.112282 S    
C25   N17   1.322716 A    
C76   C92   1.538712 S    
C75   C81   1.567413 S    
C5    H5    1.079143 S    
H37   C57   1.114608 S    
C73   C83   1.566825 S    
C69   C85   1.566253 S    
C118  H122  1.109069 S    
C100  C104  1.579740 S    
H63   C91   1.110826 S    
N43   O29   1.301208 A    
C35   H23   1.075851 S    
C6    N6    1.312748 A    
C119  H124  1.109116 S    
N4    Ni4   1.892527 S    
C89   H81   1.110893 S    
N27   Ni8   1.892528 S    
C24   C60   1.468262 S    
C12   N12   1.326021 A    
C97   H89   1.114625 S    
C113  H105  1.108155 S    
C50   N34   1.473152 S    
C68   C70   1.520419 S    
C72   C88   1.568410 S    
C103  O23   1.430244 S    
C25   C41   1.379428 A    
O23   C119  1.409400 S    
C68   H52   1.113962 S    
C6    H6    1.079766 S    
C4    H4    1.076528 S    
H44   C64   1.112023 S    
C11   C22   1.375262 A    
C117  H119  1.108964 S    
H100  C106  1.111670 S    
C4    C20   1.383790 A    
N38   O15   1.302079 A    
C114  H109  1.110377 S    
C115  H112  1.109062 S    
C14   H14   1.071624 S    
C116  H116  1.109020 S    
C100  H92   1.113067 S    
C43   C61   1.487112 S    
N1    N6    1.391891 A    
C6    C17   1.372472 A    
C98   H86   1.105553 S    
N3    N8    1.391891 A    
C39   N47   1.430853 S    
C54   C61   1.560794 S    
N2    Ni2   1.892527 S    
C16   N16   1.325519 A    
C47   C87   1.481652 S    
C26   N18   1.333201 A    
C97   C107  1.558873 S    
N41   O26   1.300246 A    
C85   C89   1.563079 S    
C90   H82   1.109576 S    
C65   C71   1.518296 S    
C101  C109  1.582920 S    
N5    Ni5   1.897948 S    
C98   C107  1.549941 S    
C34   N26   1.319895 A    
C7    N7    1.312957 A    
C75   O11   1.427001 S    
C8    N8    1.311406 A    
C13   H13   1.073625 S    
C2    H2    1.076225 S    
C38   N46   1.431163 S    
C10   N10   1.326183 A    
C80   C84   1.549894 S    
C105  C107  1.561203 S    
C58   C64   1.511305 S    
C41   C107  1.487028 S    
N34   O4    1.302045 A    
N36   O7    1.300631 A    
C109  C111  1.547389 S    
C77   C81   1.551808 S    
C15   H15   1.071701 S    
C37   N45   1.430817 S    
N15   Ni4   1.898576 S    
C104  H96   1.113088 S    
N8    Ni8   1.898586 S    
C54   H30   1.109792 S    
N25   N30   1.391891 A    
N15   N16   1.408368 A    
H42   C63   1.114764 S    
N27   N32   1.391891 A    
C87   C95   1.571188 S    
N9    N10   1.408368 A    
C34   C46   1.380843 A    
C102  C109  1.579115 S    
C50   H26   1.109369 S    
C51   N35   1.473220 S    
N47   O38   1.298963 A    
C114  H108  1.104973 S    
C74   C90   1.536202 S    
C53   C61   1.560792 S    
C2    N2    1.322762 A    
C10   C21   1.384967 A    
N28   Ni7   1.893406 S    
C117  H117  1.106819 S    
C79   H67   1.110864 S    
H104  C112  1.110029 S    
N6    Ni6   1.898586 S    
C35   C47   1.379888 A    
C72   H54   1.113621 S    
C118  H121  1.111006 S    
N17   Ni1   1.892968 S    
C31   N23   1.324899 A    
N26   Ni5   1.893406 S    
C74   O10   1.431020 S    
N37   O14   1.301306 A    
C58   C60   1.559132 S    
C120  H126  1.108861 S    
N36   O8    1.301849 A    
C70   H56   1.113743 S    
C71   C87   1.566193 S    
C50   C54   1.547115 S    
C96   H74   1.114964 S    
N17   N18   1.408368 A    
C66   H46   1.109908 S    
C18   C81   1.449860 S    
C1    C17   1.384458 A    
N29   Ni2   1.898584 S    
C54   H34   1.104300 S    
