data_str_m3_o40_o41_f0_fof.sym.210
_audit_creation_date              2012-12-10T16:37:58-0500
_audit_creation_method            fapswitch 2.2
_symmetry_space_group_name_H-M    P1
_symmetry_Int_Tables_number       1
_space_group_crystal_system       triclinic
_cell_length_a                    28.160022
_cell_length_b                    18.58152
_cell_length_c                    17.017291
_cell_angle_alpha                 89.968117
_cell_angle_beta                  60.976452
_cell_angle_gamma                 90.103393
_cell_volume                      7786.16557101

loop_
_atom_site_label
_atom_site_type_symbol
_atom_type_description
_atom_site_fract_x
_atom_site_fract_y
_atom_site_fract_z
_atom_type_partial_charge
C1    C     C_R   0.709804 0.282782 0.668896 0.917969
C2    C     C_R   0.299570 0.734461 0.322541 0.877336
C3    C     C_R   0.291317 0.280839 0.329686 0.919115
C4    C     C_R   0.699985 0.735285 0.677456 0.869173
C5    C     C_R   0.209647 0.782262 0.669041 0.920049
C6    C     C_R   0.799418 0.234218 0.322673 0.873255
C7    C     C_R   0.796370 0.773007 0.324636 0.928705
C8    C     C_R   0.200350 0.234727 0.677416 0.876246
C9    C     C_R   0.900436 0.496829 0.499643 0.070168
C10   C     C_R   0.083742 0.497349 0.547320 0.070696
C11   C     C_R   0.414997 0.997729 0.456260 0.070496
C12   C     C_R   0.598265 0.996691 0.503872 0.071483
C13   C     C_R   0.075383 0.368649 0.570400 -0.244813
C14   C     C_R   0.883437 0.620715 0.549492 -0.251592
C15   C     C_R   0.918979 0.371875 0.454846 -0.238416
C16   C     C_R   0.090191 0.624203 0.514531 -0.238870
C17   C     C_R   0.581314 0.870828 0.543956 -0.242113
C18   C     C_R   0.407160 0.124100 0.492620 -0.236366
C19   C     C_R   0.424464 0.869451 0.429404 -0.245615
C20   C     C_R   0.613495 0.121386 0.458050 -0.240572
C21   C     C_R   0.730324 0.278132 0.943065 -0.005684
C22   C     C_R   0.284852 0.737994 0.039532 -0.004296
C23   C     C_R   0.273987 0.268902 0.053058 -0.005598
C24   C     C_R   0.713153 0.745826 0.960638 -0.007910
C25   C     C_R   0.228035 0.771140 0.944375 -0.005070
C26   C     C_R   0.787121 0.243627 0.038002 -0.005948
C27   C     C_R   0.773184 0.778318 0.051232 -0.003543
C28   C     C_R   0.216670 0.236670 0.958544 -0.005285
C29   C     C_R   0.782328 0.245322 0.896716 -0.001078
C30   C     C_R   0.234253 0.774257 0.083257 -0.001729
C31   C     C_R   0.222798 0.233737 0.098567 -0.002153
C32   C     C_R   0.762022 0.785716 0.916859 0.006175
C33   C     C_R   0.279335 0.736609 0.898898 -0.002021
C34   C     C_R   0.736992 0.280759 0.081542 0.000610
C35   C     C_R   0.721175 0.745156 0.099295 -0.000420
C36   C     C_R   0.266923 0.273967 0.914950 -0.001168
C37   C     C_R   0.811213 0.229225 0.944618 0.059213
C38   C     C_R   0.203094 0.781850 0.037846 0.071555
C39   C     C_R   0.193480 0.219631 0.051273 0.060182
C40   C     C_R   0.794982 0.793539 0.958861 0.076945
C41   C     C_R   0.308540 0.722067 0.946453 0.056712
C42   C     C_R   0.705677 0.288806 0.036583 0.076078
C43   C     C_R   0.690799 0.729502 0.053348 0.056669
C44   C     C_R   0.298436 0.281243 0.959832 0.072797
C45   C     C_R   0.648360 0.325733 0.941926 0.033232
C46   C     C_R   0.364529 0.687175 0.043342 0.062511
C47   C     C_R   0.354179 0.321283 0.055933 0.033734
C48   C     C_R   0.634612 0.689777 0.957208 0.063136
C49   C     C_R   0.147623 0.822569 0.941582 0.034694
C50   C     C_R   0.865425 0.189166 0.043073 0.056353
C51   C     C_R   0.857809 0.821502 0.046748 0.053565
C52   C     C_R   0.136800 0.185537 0.955417 0.064684
C53   C     C_R   0.625564 0.358909 0.890736 -0.165247
C54   C     C_R   0.390839 0.665404 0.092924 -0.182999
C55   C     C_R   0.375462 0.356840 0.107961 -0.164654
C56   C     C_R   0.608403 0.666642 0.907579 -0.186300
C57   C     C_R   0.125633 0.857958 0.890527 -0.160837
C58   C     C_R   0.890783 0.165427 0.093557 -0.176135
C59   C     C_R   0.886859 0.839813 0.093850 -0.192537
C60   C     C_R   0.109794 0.164792 0.906561 -0.184798
C61   C     C_R   0.656244 0.360661 0.796672 0.011746
C62   C     C_R   0.376662 0.698464 0.174967 0.014332
C63   C     C_R   0.343946 0.358890 0.201732 0.006181
C64   C     C_R   0.622347 0.699270 0.825093 0.013448
C65   C     C_R   0.156897 0.860213 0.796685 0.009071
C66   C     C_R   0.876539 0.198337 0.175926 0.014751
C67   C     C_R   0.871350 0.809786 0.177168 0.007789
C68   C     C_R   0.123516 0.198592 0.825082 0.014991
C69   C     C_R   0.697714 0.311799 0.756733 -0.160382
C70   C     C_R   0.324620 0.728772 0.223045 -0.153967
C71   C     C_R   0.303734 0.308027 0.241206 -0.157851
C72   C     C_R   0.673976 0.730852 0.777145 -0.151357
C73   C     C_R   0.197766 0.810310 0.756800 -0.159335
C74   C     C_R   0.824922 0.229490 0.223195 -0.157607
C75   C     C_R   0.816444 0.790705 0.229744 -0.152998
C76   C     C_R   0.175525 0.229025 0.776735 -0.152692
C77   C     C_R   0.727249 0.292585 0.802123 0.013998
C78   C     C_R   0.295035 0.746981 0.175811 0.003908
C79   C     C_R   0.275622 0.284767 0.194757 0.014920
C80   C     C_R   0.702409 0.752117 0.824856 0.001611
C81   C     C_R   0.226331 0.787723 0.802771 0.014078
C82   C     C_R   0.796202 0.249611 0.175340 0.011203
C83   C     C_R   0.781812 0.785615 0.188736 0.004235
C84   C     C_R   0.205468 0.247052 0.823418 0.004095
C85   C     C_R   0.695761 0.127883 0.519904 0.930571
C86   C     C_R   0.308680 0.870333 0.464961 0.863843
C87   C     C_R   0.305966 0.128005 0.475220 0.924294
C88   C     C_R   0.691680 0.870596 0.533155 0.883367
C89   C     C_R   0.193783 0.628039 0.525416 0.925539
C90   C     C_R   0.808344 0.370683 0.466830 0.869515
C91   C     C_R   0.803981 0.627878 0.480890 0.916660
C92   C     C_R   0.191336 0.370320 0.534911 0.865599
C93   C     C_R   0.701992 0.298872 0.895871 0.072445
C94   C     C_R   0.314310 0.723124 0.086867 0.066304
C95   C     C_R   0.301351 0.291428 0.101060 0.072421
C96   C     C_R   0.683824 0.728323 0.913710 0.066512
C97   C     C_R   0.200713 0.793936 0.896335 0.073745
C98   C     C_R   0.815769 0.226559 0.086055 0.068579
C99   C     C_R   0.804565 0.794141 0.095274 0.069456
C100  C     C_R   0.186810 0.222196 0.911787 0.065492
C101  C     C_R   0.621070 0.319883 0.036511 -0.204754
C102  C     C_R   0.390314 0.682420 0.949185 -0.179577
C103  C     C_R   0.382119 0.315796 0.961344 -0.208895
C104  C     C_R   0.609572 0.684364 0.051383 -0.182137
C105  C     C_R   0.119601 0.815023 0.035464 -0.218081
C106  C     C_R   0.891811 0.185568 0.948774 -0.184044
C107  C     C_R   0.881203 0.825374 0.952533 -0.192059
C108  C     C_R   0.111864 0.179048 0.049297 -0.177999
C109  C     C_R   0.649275 0.301708 0.082678 -0.202871
C110  C     C_R   0.363786 0.702481 0.901941 -0.248110
C111  C     C_R   0.354653 0.295949 0.914407 -0.196630
C112  C     C_R   0.635994 0.707188 0.098214 -0.244317
C113  C     C_R   0.146707 0.794960 0.082844 -0.191612
C114  C     C_R   0.866299 0.208778 0.900896 -0.242786
C115  C     C_R   0.850633 0.810575 0.909739 -0.218802
C116  C     C_R   0.138439 0.199445 0.096050 -0.254852
C117  C     C_R   0.780602 0.266559 0.757445 -0.201805
C118  C     C_R   0.251922 0.797203 0.208353 -0.206495
C119  C     C_R   0.223216 0.254490 0.238174 -0.197653
C120  C     C_R   0.742996 0.805921 0.793012 -0.202159
C121  C     C_R   0.278696 0.757531 0.759222 -0.197416
C122  C     C_R   0.754012 0.301189 0.207613 -0.206560
C123  C     C_R   0.726388 0.766246 0.235474 -0.200280
C124  C     C_R   0.248280 0.297970 0.791047 -0.205708
C125  C     C_R   0.802286 0.229816 0.804218 0.084898
C126  C     C_R   0.222531 0.812787 0.162868 0.089736
C127  C     C_R   0.203151 0.216012 0.190488 0.079188
C128  C     C_R   0.770824 0.825567 0.839729 0.095206
C129  C     C_R   0.298846 0.719186 0.807053 0.080270
C130  C     C_R   0.725670 0.318964 0.161051 0.091594
C131  C     C_R   0.702697 0.729596 0.191443 0.082637
C132  C     C_R   0.277806 0.313620 0.836353 0.089832
C133  C     C_R   0.070989 0.103965 0.937125 0.866036
C134  C     C_R   0.928272 0.896878 0.062939 0.934602
C135  C     C_R   0.929046 0.104030 0.062979 0.903066
C136  C     C_R   0.076043 0.901815 0.932287 0.904158
C137  C     C_R   0.570470 0.604550 0.937647 0.872923
C138  C     C_R   0.424422 0.401400 0.067198 0.918360
C139  C     C_R   0.429305 0.604234 0.062588 0.871895
C140  C     C_R   0.575896 0.401895 0.932442 0.917697
C141  C     C_R   0.562648 0.125692 0.464036 0.028338
C142  C     C_R   0.465547 0.865981 0.453558 0.035785
C143  C     C_R   0.460472 0.126985 0.475495 0.021192
C144  C     C_R   0.544613 0.866421 0.510375 0.032596
C145  C     C_R   0.036405 0.626520 0.534020 0.020464
C146  C     C_R   0.955694 0.367024 0.488356 0.033999
C147  C     C_R   0.933391 0.625027 0.547615 0.030854
C148  C     C_R   0.034262 0.365605 0.546245 0.035975
C149  C     C_R   0.538428 0.192610 0.465012 -0.050147
C150  C     C_R   0.485357 0.799732 0.467533 -0.053052
C151  C     C_R   0.485797 0.193138 0.474151 -0.051679
C152  C     C_R   0.522071 0.800148 0.502536 -0.052325
C153  C     C_R   0.010215 0.692419 0.539151 -0.051146
C154  C     C_R   0.979229 0.300819 0.493411 -0.054658
C155  C     C_R   0.956484 0.691733 0.552618 -0.048511
C156  C     C_R   0.015357 0.299704 0.529498 -0.053863
C157  C     C_R   0.486930 0.061782 0.467312 0.015169
C158  C     C_R   0.529147 0.930710 0.486038 0.011867
C159  C     C_R   0.535124 0.061127 0.471097 0.015497
C160  C     C_R   0.486315 0.930913 0.466223 0.012751
C161  C     C_R   0.961910 0.560657 0.537268 0.016657
C162  C     C_R   0.012669 0.430639 0.536165 0.012516
C163  C     C_R   0.010277 0.561268 0.540850 0.015146
C164  C     C_R   0.969956 0.430747 0.515998 0.010330
C165  C     C_R   0.943616 0.495817 0.518824 -0.022165
C166  C     C_R   0.034951 0.496304 0.543261 -0.022089
C167  C     C_R   0.463273 0.996738 0.461691 -0.022405
C168  C     C_R   0.554588 0.995919 0.485913 -0.021166
C169  C     C_R   0.886786 0.434101 0.469023 0.050129
C170  C     C_R   0.112529 0.562453 0.532617 0.050696
C171  C     C_R   0.105438 0.432731 0.558943 0.051050
C172  C     C_R   0.870738 0.560597 0.511941 0.049089
C173  C     C_R   0.394095 0.933272 0.442208 0.051154
C174  C     C_R   0.627650 0.060712 0.492305 0.040259
C175  C     C_R   0.612876 0.933524 0.531907 0.054111
C176  C     C_R   0.385941 0.062523 0.471600 0.049690
C177  C     C_R   0.839874 0.435279 0.457582 -0.101764
C178  C     C_R   0.162319 0.562819 0.535548 -0.120941
C179  C     C_R   0.157761 0.434336 0.553091 -0.101944
C180  C     C_R   0.830669 0.562161 0.483877 -0.116682
C181  C     C_R   0.342097 0.934586 0.447079 -0.101335
C182  C     C_R   0.668750 0.062082 0.517874 -0.114086
C183  C     C_R   0.660063 0.934923 0.542734 -0.114930
C184  C     C_R   0.336983 0.062828 0.466169 -0.120623
C185  C     C_R   0.815813 0.499734 0.457477 -0.327049
C186  C     C_R   0.183062 0.499255 0.548139 -0.325118
C187  C     C_R   0.316796 0.999349 0.451906 -0.323974
C188  C     C_R   0.684194 0.999493 0.542831 -0.305359
H1    H     H_    0.782674 0.500490 0.442077 0.190776
H2    H     H_    0.221776 0.499770 0.547422 0.192810
H3    H     H_    0.278493 0.999746 0.451215 0.192399
H4    H     H_    0.717745 0.000286 0.557209 0.190142
H5    H     H_    0.084434 0.320427 0.595405 0.201592
H6    H     H_    0.855986 0.665155 0.578950 0.196484
H7    H     H_    0.916239 0.327202 0.416828 0.187567
H8    H     H_    0.113698 0.669835 0.478038 0.203995
H9    H     H_    0.584427 0.825409 0.580389 0.198048
H10   H     H_    0.382930 0.169045 0.529571 0.202550
H11   H     H_    0.415716 0.821754 0.403015 0.200564
H12   H     H_    0.640467 0.166219 0.427122 0.197745
H13   H     H_    0.577890 0.328772 0.076180 0.167266
H14   H     H_    0.432871 0.668964 0.910043 0.159513
H15   H     H_    0.425087 0.326802 0.922327 0.167453
H16   H     H_    0.567492 0.668498 0.090955 0.160107
H17   H     H_    0.076706 0.823740 0.072547 0.168655
H18   H     H_    0.934146 0.170829 0.910242 0.157114
H19   H     H_    0.924031 0.836122 0.910328 0.163187
H20   H     H_    0.069723 0.164245 0.089282 0.177720
H21   H     H_    0.626168 0.295338 0.154792 0.134518
H22   H     H_    0.388310 0.705292 0.829852 0.146503
H23   H     H_    0.378159 0.289959 0.842359 0.135100
H24   H     H_    0.611652 0.709872 0.170162 0.143192
H25   H     H_    0.122823 0.787265 0.154609 0.138758
H26   H     H_    0.891298 0.212849 0.829098 0.143339
H27   H     H_    0.871699 0.808973 0.837238 0.134831
H28   H     H_    0.113955 0.202162 0.168042 0.143357
H29   H     H_    0.804856 0.268649 0.685332 0.173661
H30   H     H_    0.245207 0.832514 0.262909 0.176799
H31   H     H_    0.197226 0.257193 0.309771 0.175183
H32   H     H_    0.748023 0.840552 0.738593 0.173997
H33   H     H_    0.304223 0.759607 0.687425 0.174119
H34   H     H_    0.747470 0.335718 0.262777 0.178597
H35   H     H_    0.701695 0.771176 0.307053 0.180985
H36   H     H_    0.254523 0.333652 0.736935 0.175834
O1    O     O_R   0.746490 0.236330 0.638080 -0.656735
O2    O     O_R   0.253510 0.763670 0.361920 -0.637122
O3    O     O_R   0.253510 0.236330 0.361920 -0.657273
O4    O     O_R   0.746490 0.763670 0.638080 -0.636948
O5    O     O_R   0.246490 0.736330 0.638080 -0.657022
O6    O     O_R   0.753510 0.263670 0.361920 -0.638339
O7    O     O_R   0.753510 0.736330 0.361920 -0.662923
O8    O     O_R   0.246490 0.263670 0.638080 -0.637324
O9    O     O_R   0.674170 0.186160 0.516270 -0.635746
O10   O     O_R   0.325830 0.813840 0.483730 -0.653205
O11   O     O_R   0.325830 0.186160 0.483730 -0.630403
O12   O     O_R   0.674170 0.813840 0.516270 -0.648404
O13   O     O_R   0.174170 0.686160 0.516270 -0.630866
O14   O     O_R   0.825830 0.313840 0.483730 -0.655520
O15   O     O_R   0.825830 0.686160 0.483730 -0.648530
O16   O     O_R   0.174170 0.313840 0.516270 -0.651350
O17   O     O_R   0.739960 0.127620 0.525000 -0.630017
O18   O     O_R   0.260040 0.872380 0.475000 -0.645866
O19   O     O_R   0.260040 0.127620 0.475000 -0.635023
O20   O     O_R   0.739960 0.872380 0.525000 -0.629351
O21   O     O_R   0.239960 0.627620 0.525000 -0.634031
O22   O     O_R   0.760040 0.372380 0.475000 -0.643405
O23   O     O_R   0.760040 0.627620 0.475000 -0.636625
O24   O     O_R   0.239960 0.372380 0.525000 -0.645043
O25   O     O_R   0.680700 0.294870 0.629350 -0.631519
O26   O     O_R   0.319300 0.705130 0.370650 -0.626821
O27   O     O_R   0.319300 0.294870 0.370650 -0.628028
O28   O     O_R   0.680700 0.705130 0.629350 -0.627162
O29   O     O_R   0.180700 0.794870 0.629350 -0.629202
O30   O     O_R   0.819300 0.205130 0.370650 -0.628567
O31   O     O_R   0.819300 0.794870 0.370650 -0.637432
O32   O     O_R   0.180700 0.205130 0.629350 -0.626810
O33   O     O_R   0.062020 0.072840 0.007170 -0.623202
O34   O     O_R   0.937980 0.927160 0.992830 -0.624104
O35   O     O_R   0.937980 0.072840 0.992830 -0.621100
O36   O     O_R   0.062020 0.927160 0.007170 -0.633717
O37   O     O_R   0.562020 0.572840 0.007170 -0.621989
O38   O     O_R   0.437980 0.427160 0.992830 -0.624203
O39   O     O_R   0.437980 0.572840 0.992830 -0.621789
O40   O     O_R   0.562020 0.427160 0.007170 -0.623654
O41   O     O_R   0.947860 0.073950 0.109290 -0.618057
O42   O     O_R   0.052140 0.926050 0.890710 -0.625847
O43   O     O_R   0.052140 0.073950 0.890710 -0.625147
O44   O     O_R   0.947860 0.926050 0.109290 -0.600033
O45   O     O_R   0.447860 0.573950 0.109290 -0.625134
O46   O     O_R   0.552140 0.426050 0.890710 -0.621655
O47   O     O_R   0.552140 0.573950 0.890710 -0.625632
O48   O     O_R   0.447860 0.426050 0.109290 -0.621764
Zn1   Zn    Zn3+2 0.792340 0.208750 0.507670 0.901223
Zn2   Zn    Zn3+2 0.207660 0.791250 0.492330 0.929056
Zn3   Zn    Zn3+2 0.207660 0.208750 0.492330 0.895205
Zn4   Zn    Zn3+2 0.792340 0.791250 0.507670 0.914212
Zn5   Zn    Zn3+2 0.292340 0.708750 0.507670 0.893727
Zn6   Zn    Zn3+2 0.707660 0.291250 0.492330 0.925454
Zn7   Zn    Zn3+2 0.707660 0.708750 0.492330 0.891359
Zn8   Zn    Zn3+2 0.292340 0.291250 0.507670 0.931163
Zn9   Zn    Zn3+2 0.505960 0.500000 0.080520 0.897663
Zn10  Zn    Zn3+2 0.494040 0.500000 0.919480 0.897333
Zn11  Zn    Zn3+2 0.005960 1.000000 0.080520 0.899731
Zn12  Zn    Zn3+2 0.994040 0.000000 0.919480 0.897044
C189  C     C_R   0.031610 0.230224 0.552556 0.119409
C190  C     C_R   0.995353 0.195419 0.632492 -0.168919
C191  C     C_R   0.010874 0.133374 0.660551 -0.145215
C192  C     C_R   0.063444 0.106552 0.609639 -0.146648
C193  C     C_R   0.100300 0.141795 0.530784 -0.111242
C194  C     C_R   0.084325 0.202884 0.501337 -0.143196
H37   H     H_    0.956166 0.218860 0.675015 0.112142
H38   H     H_    0.982634 0.107284 0.722879 0.125216
H39   H     H_    0.075915 0.059243 0.632036 0.115816
H40   H     H_    0.141274 0.121628 0.492762 0.140183
H41   H     H_    0.113254 0.230164 0.440656 0.122714
C195  C     C_R   0.929279 0.761771 0.559283 0.105725
C196  C     C_R   0.924044 0.812140 0.624637 -0.128682
C197  C     C_R   0.913604 0.884228 0.615901 -0.138498
C198  C     C_R   0.904483 0.905485 0.545718 -0.139906
C199  C     C_R   0.904697 0.854839 0.485565 -0.133093
C200  C     C_R   0.918551 0.783447 0.490437 -0.137507
H42   H     H_    0.932791 0.796747 0.677625 0.115360
H43   H     H_    0.914514 0.923762 0.661671 0.126525
H44   H     H_    0.898566 0.961269 0.535639 0.135408
H45   H     H_    0.896419 0.872559 0.433164 0.119695
H46   H     H_    0.923693 0.745934 0.438352 0.143092
C201  C     C_R   0.968302 0.233608 0.457690 0.123550
C202  C     C_R   0.009431 0.204161 0.377844 -0.154242
C203  C     C_R   0.999548 0.142564 0.340793 -0.158807
C204  C     C_R   0.947998 0.110964 0.382359 -0.135384
C205  C     C_R   0.906392 0.141015 0.460854 -0.120352
C206  C     C_R   0.916539 0.201869 0.498886 -0.147574
H47   H     H_    0.048520 0.230492 0.343458 0.113204
H48   H     H_    0.031548 0.120079 0.279138 0.122785
H49   H     H_    0.940129 0.063727 0.353224 0.121279
H50   H     H_    0.866283 0.117100 0.492200 0.137101
H51   H     H_    0.883997 0.225219 0.558964 0.125977
C207  C     C_R   0.038914 0.761833 0.530995 0.104791
C208  C     C_R   0.053571 0.806706 0.456226 -0.132235
C209  C     C_R   0.079472 0.872409 0.449650 -0.149355
C210  C     C_R   0.091342 0.893482 0.517109 -0.129014
C211  C     C_R   0.077381 0.848764 0.591239 -0.104381
C212  C     C_R   0.051336 0.783052 0.598234 -0.146981
H52   H     H_    0.044583 0.790978 0.403544 0.126098
H53   H     H_    0.090073 0.906992 0.392388 0.131353
H54   H     H_    0.111234 0.944467 0.512162 0.114352
H55   H     H_    0.086518 0.865183 0.643473 0.127581
H56   H     H_    0.040383 0.748991 0.656230 0.131968
C213  C     C_R   0.533876 0.732127 0.535723 0.115225
C214  C     C_R   0.492389 0.699281 0.612465 -0.161275
C215  C     C_R   0.502666 0.637517 0.648653 -0.147235
C216  C     C_R   0.555068 0.608981 0.609172 -0.147408
C217  C     C_R   0.597027 0.642254 0.533655 -0.119110
C218  C     C_R   0.586461 0.703233 0.496285 -0.146344
H57   H     H_    0.452878 0.723989 0.645858 0.115129
H58   H     H_    0.470318 0.612788 0.708304 0.125897
H59   H     H_    0.563330 0.561707 0.637728 0.115447
H60   H     H_    0.637695 0.620540 0.504009 0.141535
H61   H     H_    0.619278 0.729048 0.438444 0.131783
C219  C     C_R   0.458052 0.262501 0.479323 0.104438
C220  C     C_R   0.441331 0.307578 0.554298 -0.135363
C221  C     C_R   0.416410 0.373321 0.557772 -0.149359
C222  C     C_R   0.407249 0.394062 0.487263 -0.125844
C223  C     C_R   0.423155 0.349045 0.412951 -0.106707
C224  C     C_R   0.448525 0.283459 0.408821 -0.145024
H62   H     H_    0.447985 0.292025 0.609538 0.123035
H63   H     H_    0.404506 0.408187 0.615016 0.130261
H64   H     H_    0.387967 0.445018 0.490007 0.114350
H65   H     H_    0.416070 0.365139 0.358368 0.126245
H66   H     H_    0.461055 0.249193 0.350627 0.132095
C225  C     C_R   0.468812 0.730425 0.444268 0.116843
C226  C     C_R   0.505706 0.694037 0.366360 -0.163724
C227  C     C_R   0.490252 0.631379 0.339206 -0.142655
C228  C     C_R   0.437308 0.605187 0.389274 -0.148400
C229  C     C_R   0.399989 0.641638 0.466443 -0.112696
C230  C     C_R   0.415770 0.703557 0.494789 -0.144450
H67   H     H_    0.545535 0.716384 0.324848 0.111977
H68   H     H_    0.518962 0.604083 0.278396 0.124593
H69   H     H_    0.424994 0.557240 0.367680 0.116254
H70   H     H_    0.358855 0.621651 0.504236 0.141320
H71   H     H_    0.386555 0.731549 0.554396 0.125071
C231  C     C_R   0.563811 0.261577 0.469673 0.100981
C232  C     C_R   0.575565 0.315196 0.404693 -0.132406
C233  C     C_R   0.592147 0.383361 0.416078 -0.155256
C234  C     C_R   0.599337 0.397859 0.490219 -0.139741
C235  C     C_R   0.589080 0.344214 0.554035 -0.107220
C236  C     C_R   0.570857 0.276475 0.544398 -0.130837
H72   H     H_    0.569816 0.305035 0.347187 0.119473
H73   H     H_    0.598261 0.425113 0.368113 0.137099
H74   H     H_    0.612133 0.450821 0.498928 0.120222
H75   H     H_    0.594095 0.355619 0.611952 0.129804
H76   H     H_    0.561029 0.236198 0.596100 0.139258
C237  C     C_3   0.658391 0.426108 0.740367 -0.376470
C238  C     C_3   0.682972 0.490456 0.764383 -0.362928
C239  C     C_3   0.694343 0.552495 0.699373 -0.823944
H77   H     H_    0.720274 0.534544 0.629080 0.258801
H78   H     H_    0.655612 0.573824 0.706725 0.271175
H79   H     H_    0.716377 0.595309 0.713966 0.241131
H80   H     H_    0.655241 0.508820 0.833866 0.236240
H81   H     H_    0.722007 0.474176 0.760713 0.225569
H82   H     H_    0.685492 0.416313 0.667745 0.208495
H83   H     H_    0.618866 0.439368 0.744994 0.219693
C240  C     C_3   0.420629 0.713106 0.201112 -0.366070
C241  C     C_3   0.427407 0.794418 0.210259 -0.354481
C242  C     C_3   0.481938 0.811939 0.204748 -0.897477
H84   H     H_    0.487105 0.780543 0.255353 0.270739
H85   H     H_    0.515770 0.799114 0.136788 0.261163
H86   H     H_    0.483774 0.870154 0.217757 0.259987
H87   H     H_    0.425151 0.824111 0.155387 0.227802
H88   H     H_    0.394218 0.814098 0.275394 0.214804
H89   H     H_    0.412309 0.684156 0.263423 0.229161
H90   H     H_    0.460587 0.693458 0.148061 0.202402
C243  C     C_3   0.340417 0.425093 0.257925 -0.377147
C244  C     C_3   0.316096 0.488543 0.231960 -0.360456
C245  C     C_3   0.302345 0.550574 0.297763 -0.829568
H91   H     H_    0.274212 0.532482 0.367342 0.255788
H92   H     H_    0.339975 0.572239 0.294701 0.272889
H93   H     H_    0.281786 0.593354 0.280091 0.243091
H94   H     H_    0.344828 0.507522 0.163151 0.235931
H95   H     H_    0.278082 0.470979 0.232713 0.225224
H96   H     H_    0.312613 0.415404 0.330388 0.209566
H97   H     H_    0.379496 0.439455 0.254498 0.217935
C246  C     C_3   0.578885 0.710797 0.796993 -0.360596
C247  C     C_3   0.572089 0.791172 0.782737 -0.352358
C248  C     C_3   0.519904 0.805098 0.778784 -0.902731
H98   H     H_    0.518875 0.771566 0.725904 0.274734
H99   H     H_    0.483880 0.792377 0.844488 0.261499
H100  H     H_    0.518013 0.862642 0.762905 0.257520
H101  H     H_    0.570706 0.823186 0.839016 0.225085
H102  H     H_    0.606982 0.810451 0.719137 0.217795
H103  H     H_    0.587754 0.679178 0.736203 0.226420
H104  H     H_    0.538715 0.692190 0.850788 0.200670
C249  C     C_3   0.159446 0.925964 0.740565 -0.378954
C250  C     C_3   0.184112 0.989916 0.765118 -0.361332
C251  C     C_3   0.196931 0.051741 0.699231 -0.825872
H105  H     H_    0.224029 0.033531 0.629400 0.255860
H106  H     H_    0.158817 0.073247 0.704193 0.272732
H107  H     H_    0.218337 0.094566 0.715172 0.242434
H108  H     H_    0.155903 0.008782 0.834143 0.236133
H109  H     H_    0.222578 0.972989 0.763075 0.225208
H110  H     H_    0.186606 0.916219 0.667948 0.208888
H111  H     H_    0.119978 0.939689 0.745252 0.217833
C252  C     C_3   0.919665 0.213258 0.204006 -0.358171
C253  C     C_3   0.968831 0.253367 0.129666 -0.378612
C254  C     C_3   0.002871 0.289266 0.166462 -0.887175
H112  H     H_    0.979435 0.333148 0.213692 0.259634
H113  H     H_    0.014599 0.249516 0.202589 0.263892
H114  H     H_    0.040217 0.312703 0.110209 0.260670
H115  H     H_    0.994626 0.215318 0.075396 0.207242
H116  H     H_    0.954769 0.295941 0.099774 0.231091
H117  H     H_    0.903494 0.249045 0.263421 0.220993
H118  H     H_    0.932629 0.162963 0.223158 0.222427
C255  C     C_3   0.916438 0.781929 0.195376 -0.366142
C256  C     C_3   0.926037 0.826593 0.262773 -0.245581
C257  C     C_3   0.985635 0.840781 0.233293 -0.970128
H119  H     H_    0.008652 0.789458 0.214714 0.254460
H120  H     H_    0.002938 0.879258 0.176621 0.299538
H121  H     H_    0.989407 0.865311 0.289507 0.239809
H122  H     H_    0.903941 0.878675 0.278326 0.236890
H123  H     H_    0.911078 0.794269 0.324770 0.227297
H124  H     H_    0.906815 0.725419 0.219765 0.165398
H125  H     H_    0.955084 0.777838 0.130673 0.188645
C258  C     C_3   0.079335 0.213530 0.799585 -0.368749
C259  C     C_3   0.072913 0.294891 0.790324 -0.355092
C260  C     C_3   0.018430 0.312613 0.795950 -0.899349
H126  H     H_    0.013011 0.281275 0.745563 0.270920
H127  H     H_    0.984601 0.299898 0.864044 0.259327
H128  H     H_    0.016897 0.370842 0.782672 0.260381
H129  H     H_    0.075381 0.324425 0.845082 0.227124
H130  H     H_    0.106126 0.314600 0.725069 0.215178
H131  H     H_    0.087329 0.184751 0.737392 0.229243
H132  H     H_    0.039382 0.193928 0.853009 0.200064
C261  C     C_3   0.837466 0.165475 0.756589 -0.456112
C262  C     C_3   0.809922 0.115435 0.719172 -0.303582
C263  C     C_3   0.845572 0.050994 0.674182 -0.972240
H133  H     H_    0.884757 0.068658 0.616936 0.274490
H134  H     H_    0.854407 0.021951 0.722367 0.272042
H135  H     H_    0.824081 0.014895 0.649801 0.249216
H136  H     H_    0.770113 0.096976 0.774457 0.227876
H137  H     H_    0.802986 0.143236 0.668013 0.241895
H138  H     H_    0.876262 0.184635 0.700445 0.192897
H139  H     H_    0.845099 0.131703 0.802765 0.221920
C264  C     C_3   0.189845 0.882501 0.188346 -0.415155
C265  C     C_3   0.216868 0.940755 0.114402 -0.308362
C266  C     C_3   0.176356 0.979629 0.093651 -0.844759
H140  H     H_    0.163298 0.943911 0.055585 0.281514
H141  H     H_    0.139921 0.997072 0.155981 0.244215
H142  H     H_    0.196018 0.027832 0.051613 0.247813
H143  H     H_    0.237121 0.981020 0.136451 0.208941
H144  H     H_    0.249234 0.917775 0.050514 0.225014
H145  H     H_    0.146854 0.873708 0.207523 0.198086
H146  H     H_    0.187182 0.904448 0.250955 0.170041
C267  C     C_3   0.166418 0.152153 0.238434 -0.457942
C268  C     C_3   0.189628 0.102694 0.283885 -0.299011
C269  C     C_3   0.149766 0.042297 0.335201 -0.962794
H147  H     H_    0.111175 0.064411 0.389269 0.277566
H148  H     H_    0.139848 0.011073 0.289858 0.272241
H149  H     H_    0.167897 0.005986 0.365250 0.244139
H150  H     H_    0.228677 0.079359 0.232298 0.221812
H151  H     H_    0.197549 0.132983 0.332423 0.234817
H152  H     H_    0.126605 0.172445 0.290399 0.192905
H153  H     H_    0.160974 0.117469 0.190555 0.225368
C270  C     C_3   0.795989 0.900426 0.821428 -0.410516
C271  C     C_3   0.761799 0.953372 0.898547 -0.322386
C272  C     C_3   0.795472 0.991646 0.934429 -0.829021
H154  H     H_    0.808973 0.952718 0.968964 0.276754
H155  H     H_    0.831644 0.017897 0.879070 0.249207
H156  H     H_    0.770416 0.033569 0.983520 0.247457
H157  H     H_    0.743729 0.994598 0.873738 0.207621
H158  H     H_    0.727242 0.925775 0.955793 0.226115
H159  H     H_    0.838695 0.899954 0.806151 0.200471
H160  H     H_    0.798096 0.921990 0.759109 0.179511
C273  C     C_3   0.334614 0.654690 0.760137 -0.458719
C274  C     C_3   0.310268 0.604885 0.716758 -0.298342
C275  C     C_3   0.349478 0.544130 0.665719 -0.964506
H161  H     H_    0.387898 0.565844 0.610461 0.277654
H162  H     H_    0.359826 0.513440 0.710941 0.271366
H163  H     H_    0.330570 0.507506 0.637206 0.244544
H164  H     H_    0.271316 0.581939 0.769547 0.222653
H165  H     H_    0.302011 0.634720 0.668277 0.236674
H166  H     H_    0.374220 0.674297 0.707099 0.192181
H167  H     H_    0.340406 0.620561 0.808117 0.223934
C276  C     C_3   0.695451 0.390542 0.184479 -0.414431
C277  C     C_3   0.725349 0.447934 0.110422 -0.317783
C278  C     C_3   0.687788 0.486184 0.082472 -0.841228
H168  H     H_    0.675437 0.448907 0.044783 0.278994
H169  H     H_    0.650857 0.506719 0.141800 0.245679
H170  H     H_    0.709560 0.532404 0.037985 0.248107
H171  H     H_    0.743539 0.488865 0.135533 0.210769
H172  H     H_    0.759550 0.424201 0.049187 0.226060
H173  H     H_    0.652562 0.384562 0.201472 0.197945
H174  H     H_    0.692614 0.411782 0.247496 0.172779
C279  C     C_3   0.666369 0.666088 0.241386 -0.458377
C280  C     C_3   0.691690 0.616504 0.283276 -0.303441
C281  C     C_3   0.655096 0.552107 0.328485 -0.971483
H175  H     H_    0.615068 0.569699 0.383291 0.279689
H176  H     H_    0.648010 0.522095 0.279119 0.272713
H177  H     H_    0.674638 0.516182 0.356525 0.247977
H178  H     H_    0.731980 0.597339 0.230350 0.225344
H179  H     H_    0.697241 0.645338 0.335131 0.242856
H180  H     H_    0.627384 0.686619 0.295470 0.192214
H181  H     H_    0.659440 0.631133 0.195283 0.225886
C282  C     C_3   0.309343 0.384411 0.812416 -0.415989
C283  C     C_3   0.281483 0.441249 0.887644 -0.307992
C284  C     C_3   0.321471 0.480826 0.909172 -0.844772
H182  H     H_    0.335372 0.444822 0.945815 0.280017
H183  H     H_    0.357415 0.500152 0.847198 0.244268
H184  H     H_    0.301068 0.527890 0.952737 0.247846
H185  H     H_    0.260672 0.481302 0.866477 0.208343
H186  H     H_    0.249489 0.416832 0.951008 0.224593
H187  H     H_    0.352486 0.376988 0.792892 0.196017
H188  H     H_    0.311427 0.407023 0.750505 0.170221

loop_
_geom_bond_atom_site_label_1
_geom_bond_atom_site_label_2
_ccdc_geom_bond_type
C119  H31   S    
C85   C182  S    
C35   C131  A    
O12   Zn7   S    
C254  H112  S    
C9    C169  A    
C275  H161  S    
C34   C42   A    
C116  H28   S    
C181  C187  A    
C138  O48   A    
C217  C218  A    
C199  C200  A    
C139  O45   A    
C282  H187  S    
C190  H37   S    
C170  C178  A    
C85   O9    A    
C104  H16   S    
C12   C174  A    
C42   C109  A    
C240  H89   S    
C221  H63   S    
C24   C96   A    
C137  O37   A    
C1    O1    A    
C274  H165  S    
C266  H142  S    
C87   O11   A    
C30   C38   A    
O3    Zn3   S    
O27   Zn8   S    
C156  C189  S    
C204  C205  A    
C261  H138  S    
C218  H61   S    
O13   Zn2   S    
C265  C266  S    
C283  H185  S    
C136  O36   A    
C196  H42   S    
C117  H29   S    
C236  H76   S    
C147  C155  A    
C107  H19   S    
C123  C131  A    
C143  C151  A    
C14   H6    S    
C90   C177  S    
C11   C167  A    
O40   Zn9   S    
C82   C98   A    
O45   Zn9   S    
C247  H102  S    
C51   C107  A    
C109  H21   S    
C73   C81   A    
C161  C163  A    
C227  C228  A    
C162  C164  A    
C253  H115  S    
C50   C98   A    
C214  C215  A    
C90   O14   A    
C264  C265  S    
C84   C100  A    
O26   Zn5   S    
C219  C220  A    
C4    O28   A    
C121  C129  A    
C225  C230  A    
O47   Zn10  S    
C37   C114  A    
C27   C35   A    
C10   C171  A    
C21   C29   A    
C8    O32   A    
C18   C176  A    
C194  H41   S    
C81   C121  A    
C23   C31   A    
C87   C184  S    
C186  H2    S    
C24   C32   A    
C269  H148  S    
C149  C231  S    
C146  C154  A    
C134  O34   A    
C27   C99   A    
C226  C227  A    
C264  H145  S    
C115  H27   S    
C247  C248  S    
C246  H104  S    
O16   Zn3   S    
C207  C212  A    
C195  C196  A    
C63   C71   A    
C62   C240  S    
C254  H114  S    
C36   C44   A    
C197  C198  A    
C240  C241  S    
C252  C253  S    
C277  C278  S    
C2    O2    A    
C175  C183  A    
O42   Zn12  S    
C176  C184  A    
C223  H65   S    
C164  C165  A    
C265  H144  S    
C48   C96   A    
C258  H131  S    
C131  C279  S    
O1    Zn1   S    
C280  H179  S    
C279  H181  S    
C106  H18   S    
C239  H77   S    
C270  H159  S    
C243  C244  S    
O31   Zn4   S    
O7    Zn7   S    
C155  C195  S    
C148  C162  A    
O8    Zn8   S    
C125  C261  S    
C101  H13   S    
C248  H98   S    
C142  C150  A    
C268  C269  S    
C21   C93   A    
O43   Zn12  S    
C78   C94   A    
O5    Zn5   S    
C23   C95   A    
C238  H80   S    
C260  H126  S    
C244  C245  S    
C49   C97   A    
C21   C42   A    
C22   C41   A    
C65   C249  S    
C210  C211  A    
C67   C255  S    
C262  H136  S    
C263  H134  S    
C24   C43   A    
C16   C145  A    
C183  C188  A    
C235  H75   S    
C82   C122  A    
C256  H123  S    
C17   C175  A    
C252  H118  S    
C242  H85   S    
C276  H173  S    
C199  H45   S    
C139  O39   A    
C246  C247  S    
C232  H72   S    
C114  H26   S    
C69   C77   A    
C225  C226  A    
C251  H105  S    
C31   C127  A    
C108  H20   S    
C281  H177  S    
C45   C93   A    
C174  C182  A    
C71   C79   A    
C137  O47   A    
C179  C186  A    
C62   C70   A    
C11   C176  A    
O6    Zn6   S    
C17   C144  A    
C200  H46   S    
C105  C113  A    
C18   C143  A    
C78   C118  A    
O28   Zn7   S    
O4    Zn4   S    
C153  C207  S    
C149  C151  A    
C1    O25   A    
C231  C232  A    
C66   C74   A    
C8    C76   S    
C49   C57   A    
C233  C234  A    
C124  C132  A    
C136  O42   A    
C201  C206  A    
C5    O29   A    
C224  H66   S    
C238  C239  S    
C20   H12   S    
C52   C60   A    
C59   C67   A    
C53   C61   A    
C141  C159  A    
C20   C174  A    
C124  H36   S    
C89   O21   A    
C55   C63   A    
C86   C181  S    
C56   C64   A    
C262  C263  S    
C234  H74   S    
O14   Zn1   S    
C35   C43   A    
C198  H44   S    
C10   C166  A    
C259  H130  S    
C284  H182  S    
C132  C282  S    
C22   C94   A    
C171  C179  A    
C128  C270  S    
C169  C177  A    
C271  C272  S    
C133  O43   A    
C278  H169  S    
O44   Zn11  S    
C243  H97   S    
C216  C217  A    
C275  H162  S    
C202  H47   S    
C248  H100  S    
C104  C112  A    
C145  C163  A    
C146  C164  A    
C14   C147  A    
C52   C100  A    
C255  H125  S    
C259  C260  S    
C178  C186  A    
C233  H73   S    
C260  H128  S    
C118  H30   S    
C272  H154  S    
C25   C38   A    
C54   C139  S    
C46   C94   A    
C27   C40   A    
C213  C218  A    
C91   C180  S    
C193  C194  A    
C273  H166  S    
C182  C188  A    
C89   C178  S    
O46   Zn10  S    
C17   H9    S    
C28   C36   A    
O37   Zn9   S    
C66   C252  S    
C25   C97   A    
C253  C254  S    
C214  H57   S    
C6    O6    A    
C122  H34   S    
C67   C75   A    
C219  C224  A    
C281  H175  S    
O19   Zn3   S    
C239  H79   S    
C92   O16   A    
C22   C30   A    
C271  H158  S    
C20   C141  A    
C68   C258  S    
C216  H59   S    
C15   C146  A    
C282  C283  S    
C185  H1    S    
C58   C135  S    
C68   C76   A    
C148  C156  A    
C59   C134  S    
C19   H11   S    
C184  C187  A    
C188  H4    S    
C32   C128  A    
C280  C281  S    
C144  C152  A    
C241  H87   S    
C56   C137  S    
C266  H141  S    
C275  H163  S    
C5    O5    A    
C197  H43   S    
O23   Zn7   S    
C161  C165  A    
O24   Zn8   S    
C13   C171  A    
C223  C224  A    
C228  C229  A    
C140  O40   A    
C284  H184  S    
C283  H186  S    
O20   Zn4   S    
C191  H38   S    
O34   Zn12  S    
C257  H120  S    
C117  C125  A    
C25   C33   A    
C86   O18   A    
C119  C127  A    
C249  C250  S    
C65   C73   A    
C126  C264  S    
C222  C223  A    
C76   C84   A    
C80   C120  A    
C256  C257  S    
C158  C168  A    
C268  H150  S    
C7    O7    A    
C154  C201  S    
C253  H116  S    
O9    Zn6   S    
C86   O10   A    
O39   Zn10  S    
O41   Zn11  S    
C47   C55   A    
O35   Zn12  S    
C272  H156  S    
C29   C125  A    
C244  H94   S    
C64   C246  S    
C245  H93   S    
C40   C115  A    
C101  C109  A    
C210  H54   S    
C177  C185  A    
C103  C111  A    
C213  C214  A    
C130  C276  S    
O17   Zn1   S    
C235  C236  A    
C162  C166  A    
C138  O38   A    
C79   C119  A    
C18   H10   S    
C232  C233  A    
C153  C155  A    
C246  H103  S    
C237  H83   S    
C154  C156  A    
C267  H153  S    
C204  H49   S    
C15   H7    S    
C172  C180  A    
C133  O33   A    
C211  C212  A    
C173  C181  A    
C263  H133  S    
C157  C159  A    
C13   H5    S    
C273  C274  S    
C158  C160  A    
C254  H113  S    
C261  H139  S    
C110  H22   S    
C74   C82   A    
O30   Zn1   S    
C6    C74   S    
C231  C236  A    
C92   O24   A    
C152  C213  S    
C91   O23   A    
C282  H188  S    
C47   C103  A    
C201  C202  A    
C50   C58   A    
C89   O13   A    
C163  C166  A    
C279  H180  S    
C240  H90   S    
C147  C161  A    
C38   C113  A    
C49   C105  A    
C54   C62   A    
C28   C39   A    
C203  C204  A    
C274  H164  S    
C1    C69   S    
C23   C44   A    
C83   C99   A    
C249  H111  S    
C3    C71   S    
C198  C199  A    
C19   C173  A    
C79   C95   A    
C189  C190  A    
C16   H8    S    
C92   C179  S    
C191  C192  A    
C276  C277  S    
C46   C54   A    
C85   O17   A    
C230  H71   S    
C238  H81   S    
C209  H53   S    
C271  H157  S    
C45   C101  A    
C19   C142  A    
C262  H137  S    
C250  C251  S    
C157  C167  A    
C102  C110  A    
C247  H101  S    
C3    O3    A    
C4    C72   S    
O36   Zn11  S    
C252  H117  S    
C242  H84   S    
C33   C129  A    
O48   Zn9   S    
C208  H52   S    
C7    O31   A    
C221  C222  A    
C135  O35   A    
C57   C65   A    
C281  H176  S    
C88   O20   A    
C234  C235  A    
C245  H91   S    
C120  C128  A    
C26   C37   A    
C105  H17   S    
C8    O8    A    
C10   C170  A    
C193  H40   S    
O29   Zn2   S    
C33   C41   A    
C108  C116  A    
C36   C132  A    
C102  H14   S    
C209  C210  A    
C269  H149  S    
C75   C83   A    
O38   Zn10  S    
C123  H35   S    
C217  H60   S    
C90   O22   A    
C77   C93   A    
C264  H146  S    
C140  O46   A    
C277  H172  S    
C4    O4    A    
C111  H23   S    
C208  C209  A    
C44   C111  A    
C16   C170  A    
C60   C68   A    
C72   C80   A    
C39   C116  A    
C29   C37   A    
C50   C106  A    
C121  H33   S    
C9    C172  A    
O2    Zn2   S    
C83   C123  A    
C2    C70   S    
C60   C133  S    
C205  C206  A    
C30   C126  A    
C265  H143  S    
C258  H132  S    
C70   C78   A    
C53   C140  S    
C63   C243  S    
C196  C197  A    
C280  H178  S    
C113  H25   S    
C215  C216  A    
C241  C242  S    
C141  C149  A    
C220  C221  A    
O25   Zn6   S    
C270  H160  S    
C46   C102  A    
C127  C267  S    
C6    O30   A    
C278  H168  S    
C55   C138  S    
C106  C114  A    
C270  C271  S    
O11   Zn8   S    
C112  H24   S    
C243  H96   S    
C212  H56   S    
C77   C117  A    
C2    O26   A    
C190  C191  A    
C3    O27   A    
C248  H99   S    
C228  H69   S    
C48   C104  A    
C255  H124  S    
C159  C168  A    
C15   C169  A    
O22   Zn6   S    
C279  C280  S    
C160  C167  A    
C260  H127  S    
C220  H62   S    
C129  C273  S    
C58   C66   A    
C229  C230  A    
C263  H135  S    
C57   C136  S    
C80   C96   A    
C150  C225  S    
C187  H3    S    
C256  H122  S    
C120  H32   S    
C242  H86   S    
C145  C153  A    
C276  H174  S    
C28   C100  A    
C32   C40   A    
C229  H70   S    
C52   C108  A    
O10   Zn5   S    
C205  H50   S    
C5    C73   S    
C26   C34   A    
C143  C157  A    
C239  H78   S    
C51   C99   A    
C195  C200  A    
C88   O12   A    
C11   C173  A    
C9    C165  A    
O18   Zn2   S    
C14   C172  A    
C249  H110  S    
C269  H147  S    
C277  H171  S    
C88   C183  S    
C7    C75   S    
C267  C268  S    
C192  H39   S    
C61   C237  S    
C189  C194  A    
C134  O44   A    
C207  C208  A    
C241  H88   S    
C87   O19   A    
C211  H55   S    
C251  H106  S    
C266  H140  S    
C251  H107  S    
O32   Zn3   S    
C222  H64   S    
C107  C115  A    
C250  H108  S    
C26   C98   A    
C12   C175  A    
C259  H129  S    
C41   C110  A    
C284  H183  S    
C150  C152  A    
C51   C59   A    
C43   C112  A    
C144  C158  A    
C202  C203  A    
O33   Zn11  S    
C215  H58   S    
C61   C69   A    
C48   C56   A    
C274  C275  S    
C278  H170  S    
O15   Zn4   S    
C227  H68   S    
C142  C160  A    
C12   C168  A    
O21   Zn5   S    
C268  H151  S    
C250  H109  S    
C84   C124  A    
C192  C193  A    
C257  H121  S    
C258  C259  S    
C272  H155  S    
C244  H95   S    
C237  C238  S    
C203  H48   S    
C245  H92   S    
C81   C97   A    
C31   C39   A    
C273  H167  S    
C64   C72   A    
C261  C262  S    
C103  H15   S    
C180  C185  A    
C45   C53   A    
C257  H119  S    
C283  C284  S    
C34   C130  A    
C255  C256  S    
C151  C219  S    
C91   O15   A    
C135  O41   A    
C47   C95   A    
C206  H51   S    
C118  C126  A    
C13   C148  A    
C226  H67   S    
C237  H82   S    
C122  C130  A    
C267  H152  S    
