data_str_m2_o40_o41_f0_fof.sym.174
_audit_creation_date              2013-03-05T15:40:53-0500
_audit_creation_method            fapswitch 2.2
_symmetry_space_group_name_H-M    P1
_symmetry_Int_Tables_number       1
_space_group_crystal_system       triclinic
_cell_length_a                    28.003646
_cell_length_b                    18.702518
_cell_length_c                    16.707094
_cell_angle_alpha                 90.13847
_cell_angle_beta                  63.549754
_cell_angle_gamma                 89.625891
_cell_volume                      7833.89317701

loop_
_atom_site_label
_atom_site_type_symbol
_atom_site_description
_atom_site_fract_x
_atom_site_fract_y
_atom_site_fract_z
_atom_type_partial_charge
O1    O     O_R   0.255040 0.869590 0.478480 -0.539425
O2    O     O_R   0.744960 0.130410 0.521520 -0.530324
O3    O     O_R   0.744960 0.869590 0.521520 -0.566232
O4    O     O_R   0.255040 0.130410 0.478480 -0.545154
O5    O     O_R   0.755040 0.369590 0.478480 -0.536580
O6    O     O_R   0.244960 0.630410 0.521520 -0.533424
O7    O     O_R   0.244960 0.369590 0.521520 -0.565907
O8    O     O_R   0.755040 0.630410 0.478480 -0.557709
O9    O     O_R   0.182050 0.796550 0.624440 -0.532574
O10   O     O_R   0.817950 0.203450 0.375560 -0.526913
O11   O     O_R   0.817950 0.796550 0.375560 -0.533085
O12   O     O_R   0.182050 0.203450 0.624440 -0.534238
O13   O     O_R   0.682050 0.296550 0.624440 -0.527130
O14   O     O_R   0.317950 0.703450 0.375560 -0.526247
O15   O     O_R   0.317950 0.296550 0.375560 -0.534658
O16   O     O_R   0.682050 0.703450 0.624440 -0.534240
Cu1   Cu    Cu3+1 0.209920 0.785290 0.495070 1.059733
Cu2   Cu    Cu3+1 0.790080 0.214710 0.504930 1.073307
Cu3   Cu    Cu3+1 0.790080 0.785290 0.504930 1.037508
Cu4   Cu    Cu3+1 0.209920 0.214710 0.495070 1.037825
Cu5   Cu    Cu3+1 0.709920 0.285290 0.495070 1.071142
Cu6   Cu    Cu3+1 0.290080 0.714710 0.504930 1.062974
Cu7   Cu    Cu3+1 0.290080 0.285290 0.504930 1.042915
Cu8   Cu    Cu3+1 0.709920 0.714710 0.495070 1.030177
C1    C     C_R   0.297403 0.734128 0.328295 0.877875
C2    C     C_R   0.702652 0.265850 0.672033 0.849326
C3    C     C_R   0.707383 0.724425 0.669451 0.875437
C4    C     C_R   0.295884 0.269246 0.328789 0.867030
C5    C     C_R   0.796679 0.232794 0.328162 0.869773
C6    C     C_R   0.202807 0.766036 0.671825 0.850198
C7    C     C_R   0.207383 0.224548 0.669540 0.872579
C8    C     C_R   0.795547 0.770020 0.329011 0.872544
O17   O     O_R   0.250530 0.763330 0.367210 -0.577225
O18   O     O_R   0.749470 0.236670 0.632790 -0.573270
O19   O     O_R   0.749470 0.763330 0.632790 -0.593531
O20   O     O_R   0.250530 0.236670 0.367210 -0.580939
O21   O     O_R   0.750530 0.263330 0.367210 -0.575376
O22   O     O_R   0.249470 0.736670 0.632790 -0.581638
O23   O     O_R   0.249470 0.263330 0.632790 -0.590738
O24   O     O_R   0.750530 0.736670 0.367210 -0.587680
O25   O     O_R   0.177260 0.690030 0.513710 -0.627403
O26   O     O_R   0.822740 0.309970 0.486290 -0.609052
O27   O     O_R   0.822740 0.690030 0.486290 -0.582250
O28   O     O_R   0.177260 0.309970 0.513710 -0.614085
O29   O     O_R   0.677260 0.190030 0.513710 -0.629533
O30   O     O_R   0.322740 0.809970 0.486290 -0.611742
O31   O     O_R   0.322740 0.190030 0.486290 -0.580488
O32   O     O_R   0.677260 0.809970 0.513710 -0.612560
C9    C     C_R   0.197141 0.631658 0.525729 0.837519
C10   C     C_R   0.799578 0.369039 0.485340 0.831666
C11   C     C_R   0.803374 0.631622 0.472155 0.893199
C12   C     C_R   0.196422 0.368349 0.528450 0.804604
C13   C     C_R   0.697344 0.131569 0.524806 0.836210
C14   C     C_R   0.299478 0.869033 0.485505 0.837310
C15   C     C_R   0.303357 0.131627 0.472014 0.889841
C16   C     C_R   0.696423 0.868354 0.528354 0.802910
C17   C     C_R   0.046581 0.629289 0.508140 -0.036439
C18   C     C_R   0.933370 0.375697 0.552520 0.011139
C19   C     C_R   0.963264 0.624802 0.457281 0.002307
C20   C     C_R   0.029475 0.374273 0.569299 -0.004413
C21   C     C_R   0.548982 0.128146 0.499147 -0.036363
C22   C     C_R   0.432143 0.876393 0.555327 -0.021472
C23   C     C_R   0.464582 0.123479 0.451303 -0.000905
C24   C     C_R   0.529136 0.874694 0.569655 -0.029535
C25   C     C_R   0.031634 0.692122 0.477237 0.221485
C26   C     C_R   0.950491 0.312299 0.578448 0.221382
C27   C     C_R   0.992044 0.688889 0.447319 0.232827
C28   C     C_R   0.998416 0.311606 0.587032 0.175820
C29   C     C_R   0.535133 0.190148 0.465136 0.223012
C30   C     C_R   0.449131 0.813400 0.582780 0.218158
C31   C     C_R   0.494698 0.186778 0.437268 0.230545
C32   C     C_R   0.497395 0.812580 0.589666 0.208894
C33   C     C_R   0.977953 0.562917 0.489626 -0.003118
C34   C     C_R   0.012141 0.437022 0.542984 -0.014949
C35   C     C_R   0.022091 0.564166 0.508716 -0.004241
C36   C     C_R   0.964952 0.437210 0.532095 -0.019720
C37   C     C_R   0.478923 0.062060 0.485124 -0.006777
C38   C     C_R   0.512105 0.937067 0.542082 -0.013912
C39   C     C_R   0.523471 0.063315 0.503016 -0.005162
C40   C     C_R   0.464507 0.937364 0.532355 -0.006486
C41   C     C_R   0.448569 0.999431 0.501757 0.027773
C42   C     C_R   0.541455 0.000333 0.528055 0.024387
C43   C     C_R   0.948474 0.499712 0.503290 0.026894
C44   C     C_R   0.040732 0.500699 0.531486 0.024279
C45   C     C_R   0.370267 0.937462 0.509211 0.046898
C46   C     C_R   0.614726 0.066278 0.534846 0.036742
C47   C     C_R   0.610893 0.936167 0.551625 0.042128
C48   C     C_R   0.384976 0.062108 0.461740 0.078701
C49   C     C_R   0.870693 0.437243 0.508778 0.030990
C50   C     C_R   0.113689 0.566490 0.539478 0.039322
C51   C     C_R   0.110663 0.436170 0.553150 0.038413
C52   C     C_R   0.884944 0.562473 0.463154 0.081265
C53   C     C_R   0.326210 0.935994 0.488179 -0.121567
C54   C     C_R   0.665388 0.065876 0.537023 -0.087304
C55   C     C_R   0.663963 0.935308 0.543672 -0.119054
C56   C     C_R   0.333748 0.064063 0.462867 -0.069685
C57   C     C_R   0.826517 0.435936 0.487922 -0.117978
C58   C     C_R   0.164959 0.565968 0.539304 -0.088513
C59   C     C_R   0.163876 0.435298 0.544475 -0.115980
C60   C     C_R   0.833914 0.564178 0.463255 -0.071035
C61   C     C_R   0.307437 0.999811 0.469009 -0.173853
C62   C     C_R   0.689156 0.000436 0.539701 -0.195673
C63   C     C_R   0.807782 0.499836 0.468865 -0.177240
C64   C     C_R   0.189090 0.500442 0.540483 -0.197462
H1    H     H_    0.270836 0.999848 0.461843 0.221743
H2    H     H_    0.728990 0.000088 0.535093 0.211002
H3    H     H_    0.771272 0.499870 0.461415 0.217361
H4    H     H_    0.229214 0.500064 0.534594 0.209689
C65   C     C_R   0.401573 0.999433 0.489940 0.084035
C66   C     C_R   0.589355 0.000798 0.537585 0.070309
C67   C     C_R   0.901688 0.499568 0.490680 0.085978
C68   C     C_R   0.088642 0.501025 0.540921 0.070464
C69   C     C_R   0.577987 0.875293 0.574934 -0.186637
C70   C     C_R   0.419431 0.121083 0.435444 -0.142673
C71   C     C_R   0.383633 0.879566 0.549857 -0.203363
C72   C     C_R   0.588178 0.129430 0.528875 -0.196693
C73   C     C_R   0.078088 0.375022 0.575303 -0.181628
C74   C     C_R   0.918993 0.621996 0.438963 -0.143264
C75   C     C_R   0.884599 0.378864 0.548110 -0.190577
C76   C     C_R   0.086263 0.629818 0.537026 -0.190479
H5    H     H_    0.588971 0.829070 0.601371 0.194526
H6    H     H_    0.411086 0.165405 0.402566 0.160533
H7    H     H_    0.355364 0.837854 0.581397 0.166978
H8    H     H_    0.594198 0.180307 0.551717 0.201313
H9    H     H_    0.089204 0.328604 0.601171 0.196102
H10   H     H_    0.911013 0.666537 0.406007 0.161222
H11   H     H_    0.856902 0.336310 0.579639 0.199058
H12   H     H_    0.092807 0.680036 0.560912 0.203219
C77   C     C_R   0.223006 0.764957 0.950135 -0.020502
C78   C     C_R   0.769714 0.212530 0.057157 -0.013824
C79   C     C_R   0.797555 0.734375 0.033950 -0.020692
C80   C     C_R   0.242339 0.192106 0.936169 -0.022029
C81   C     C_R   0.709609 0.242437 0.962596 -0.026545
C82   C     C_R   0.279064 0.728636 0.049798 -0.015950
C83   C     C_R   0.300156 0.229023 0.032283 -0.021273
C84   C     C_R   0.740253 0.695914 0.937754 -0.020228
C85   C     C_R   0.253815 0.700863 0.928392 -0.046463
C86   C     C_R   0.733988 0.270659 0.083077 -0.049176
C87   C     C_R   0.751275 0.691641 0.075726 -0.040926
C88   C     C_R   0.288598 0.234830 0.894905 -0.037649
C89   C     C_R   0.747546 0.185845 0.931757 -0.044828
C90   C     C_R   0.252536 0.795206 0.065385 -0.048981
C91   C     C_R   0.256223 0.181783 0.071824 -0.051854
C92   C     C_R   0.787414 0.736952 0.895288 -0.037005
C93   C     C_R   0.278185 0.679963 0.984637 0.101139
C94   C     C_R   0.698886 0.277831 0.043778 0.108961
C95   C     C_R   0.724658 0.668871 0.024713 0.092097
C96   C     C_R   0.319322 0.249402 0.941750 0.082188
C97   C     C_R   0.773624 0.166187 0.986403 0.101317
C98   C     C_R   0.220654 0.809975 0.020771 0.098852
C99   C     C_R   0.229077 0.160463 0.020330 0.104034
C100  C     C_R   0.817859 0.752262 0.942496 0.082918
C101  C     C_R   0.157553 0.843224 0.930862 0.057350
C102  C     C_R   0.837700 0.142648 0.077228 0.048162
C103  C     C_R   0.868179 0.805633 0.044987 0.043496
C104  C     C_R   0.163494 0.137333 0.930939 0.060960
C105  C     C_R   0.637458 0.312467 0.953333 0.057168
C106  C     C_R   0.339844 0.649032 0.076910 0.046934
C107  C     C_R   0.368982 0.303969 0.044418 0.044519
C108  C     C_R   0.662430 0.638808 0.932052 0.057539
C109  C     C_R   0.122528 0.855904 0.890930 -0.229225
C110  C     C_R   0.875598 0.138435 0.112028 -0.222808
C111  C     C_R   0.885880 0.844552 0.100462 -0.215816
C112  C     C_R   0.127065 0.134344 0.891463 -0.218187
C113  C     C_R   0.612693 0.340868 0.901390 -0.223333
C114  C     C_R   0.376871 0.640612 0.112507 -0.224962
C115  C     C_R   0.385997 0.343943 0.100149 -0.214668
C116  C     C_R   0.626730 0.634396 0.891454 -0.218695
C117  C     C_R   0.132707 0.820026 0.810531 0.268780
C118  C     C_R   0.866521 0.178244 0.189449 0.278088
C119  C     C_R   0.859616 0.834072 0.193669 0.253090
C120  C     C_R   0.139885 0.170911 0.810967 0.273344
C121  C     C_R   0.630824 0.317496 0.812162 0.260638
C122  C     C_R   0.367966 0.678746 0.191027 0.279900
C123  C     C_R   0.359328 0.333762 0.193317 0.253963
C124  C     C_R   0.639759 0.670318 0.810452 0.274662
C125  C     C_R   0.176880 0.773950 0.771181 -0.148478
C126  C     C_R   0.820955 0.221687 0.229421 -0.154187
C127  C     C_R   0.821684 0.779220 0.230534 -0.183615
C128  C     C_R   0.191175 0.199504 0.762430 -0.181493
C129  C     C_R   0.675102 0.270805 0.772269 -0.165474
C130  C     C_R   0.323936 0.725161 0.229374 -0.156159
C131  C     C_R   0.322384 0.277697 0.229979 -0.188322
C132  C     C_R   0.690993 0.699138 0.762203 -0.179051
C133  C     C_R   0.199963 0.745570 0.825395 -0.133249
C134  C     C_R   0.794861 0.243272 0.176999 -0.133386
C135  C     C_R   0.805413 0.739834 0.174088 -0.106279
C136  C     C_R   0.226590 0.202911 0.803136 -0.110401
C137  C     C_R   0.695441 0.236413 0.827629 -0.121825
C138  C     C_R   0.301976 0.752351 0.173540 -0.138411
C139  C     C_R   0.307613 0.236147 0.172896 -0.115145
C140  C     C_R   0.726147 0.702727 0.803192 -0.111267
C141  C     C_R   0.193527 0.784329 0.902135 0.019863
C142  C     C_R   0.800851 0.199765 0.103585 0.027332
C143  C     C_R   0.823277 0.760793 0.084718 0.033627
C144  C     C_R   0.209663 0.179685 0.891459 0.037176
C145  C     C_R   0.681195 0.264162 0.913849 0.019976
C146  C     C_R   0.307010 0.710310 0.099889 0.025696
C147  C     C_R   0.325124 0.257041 0.083609 0.034361
C148  C     C_R   0.708495 0.681351 0.892271 0.035343
C149  C     C_R   0.156742 0.886056 0.000392 -0.177542
C150  C     C_R   0.834239 0.090728 0.019218 -0.171532
C151  C     C_R   0.894176 0.807421 0.950985 -0.164433
C152  C     C_R   0.158613 0.095480 0.004179 -0.171275
C153  C     C_R   0.618725 0.327159 0.045478 -0.168163
C154  C     C_R   0.332987 0.597380 0.022370 -0.167975
C155  C     C_R   0.394789 0.306694 0.950488 -0.170052
C156  C     C_R   0.656368 0.599396 0.007931 -0.163364
C157  C     C_R   0.184853 0.867812 0.047025 -0.170474
C158  C     C_R   0.801865 0.101370 0.976775 -0.171155
C159  C     C_R   0.869675 0.780808 0.900809 -0.151771
C160  C     C_R   0.191286 0.105376 0.045925 -0.164423
C161  C     C_R   0.650416 0.314386 0.087919 -0.171336
C162  C     C_R   0.300013 0.611019 0.981941 -0.162592
C163  C     C_R   0.370475 0.279847 0.900231 -0.152492
C164  C     C_R   0.685621 0.615412 0.054237 -0.184884
C165  C     C_R   0.228608 0.680086 0.805558 0.315693
C166  C     C_R   0.765745 0.308205 0.192170 0.296685
C167  C     C_R   0.770205 0.681448 0.204052 0.288439
C168  C     C_R   0.280134 0.224721 0.757245 0.295496
C169  C     C_R   0.727249 0.173212 0.802033 0.315998
C170  C     C_R   0.279786 0.821667 0.183827 0.302764
C171  C     C_R   0.274917 0.175175 0.202159 0.315011
C172  C     C_R   0.779982 0.723125 0.757072 0.296258
C173  C     C_R   0.258092 0.660224 0.852480 0.130316
C174  C     C_R   0.736278 0.322407 0.143699 0.105760
C175  C     C_R   0.734649 0.671806 0.166526 0.160241
C176  C     C_R   0.302847 0.258846 0.806573 0.176941
C177  C     C_R   0.755740 0.150784 0.850184 0.141049
C178  C     C_R   0.259849 0.845256 0.124008 0.135074
C179  C     C_R   0.242340 0.157470 0.160498 0.129290
C180  C     C_R   0.802917 0.758104 0.805518 0.179517
H13   H     H_    0.135515 0.935589 0.020207 0.158127
H14   H     H_    0.854661 0.039776 0.008936 0.163449
H15   H     H_    0.934197 0.827091 0.914197 0.196596
H16   H     H_    0.131837 0.051642 0.028990 0.160477
H17   H     H_    0.579188 0.346218 0.088404 0.184584
H18   H     H_    0.350403 0.544471 0.014933 0.159744
H19   H     H_    0.434373 0.327715 0.913716 0.195628
H20   H     H_    0.631215 0.553394 0.031872 0.181230
H21   H     H_    0.176021 0.899171 0.106242 0.173540
H22   H     H_    0.798103 0.056075 0.940401 0.182424
H23   H     H_    0.892612 0.782035 0.829131 0.201421
H24   H     H_    0.187563 0.066119 0.095206 0.168287
H25   H     H_    0.635330 0.329996 0.157476 0.158685
H26   H     H_    0.291110 0.565397 0.951897 0.179760
H27   H     H_    0.392984 0.282467 0.828523 0.200961
H28   H     H_    0.678146 0.582899 0.111664 0.186710
O33   O     O_R   0.051640 0.926880 0.885090 -0.522803
O34   O     O_R   0.948360 0.073120 0.114910 -0.508006
O35   O     O_R   0.948360 0.926880 0.114910 -0.507857
O36   O     O_R   0.051640 0.073120 0.885090 -0.511565
O37   O     O_R   0.551640 0.426880 0.885090 -0.514747
O38   O     O_R   0.448360 0.573120 0.114910 -0.508728
O39   O     O_R   0.448360 0.426880 0.114910 -0.515154
O40   O     O_R   0.551640 0.573120 0.885090 -0.507353
Cu9   Cu    Cu3+1 0.495240 0.500000 0.924150 1.070412
Cu10  Cu    Cu3+1 0.504760 0.500000 0.075850 1.060007
Cu11  Cu    Cu3+1 0.995240 0.000000 0.924150 1.062010
Cu12  Cu    Cu3+1 0.004760 1.000000 0.075850 1.067999
C181  C     C_R   0.927553 0.900980 0.065180 0.810118
C182  C     C_R   0.076679 0.092483 0.931569 0.828266
C183  C     C_R   0.075891 0.905649 0.931407 0.797851
C184  C     C_R   0.923667 0.092776 0.069286 0.844445
C185  C     C_R   0.427499 0.400905 0.065173 0.798613
C186  C     C_R   0.576538 0.592551 0.931633 0.842407
C187  C     C_R   0.571900 0.399774 0.935283 0.795581
C188  C     C_R   0.423821 0.593065 0.069410 0.843246
O41   O     O_R   0.940620 0.926560 0.986760 -0.624325
O42   O     O_R   0.059380 0.073440 0.013240 -0.610229
O43   O     O_R   0.059380 0.926560 0.013240 -0.618589
O44   O     O_R   0.940620 0.073440 0.986760 -0.594382
O45   O     O_R   0.440620 0.426560 0.986760 -0.623257
O46   O     O_R   0.559380 0.573440 0.013240 -0.607758
O47   O     O_R   0.559380 0.426560 0.013240 -0.630158
O48   O     O_R   0.440620 0.573440 0.986760 -0.591858
N1    N     N_2   0.512791 0.748514 0.618322 -0.403414
H29   H     H_    0.519151 0.753559 0.674297 0.286380
C189  C     C_3   0.551270 0.703351 0.548410 -0.579939
H30   H     H_    0.590006 0.703770 0.551765 0.233514
H31   H     H_    0.558105 0.721182 0.480676 0.198604
H32   H     H_    0.536300 0.647710 0.558177 0.241174
N2    N     N_2   0.485544 0.247748 0.394691 -0.427479
H33   H     H_    0.480137 0.236963 0.338758 0.246260
C190  C     C_3   0.448485 0.300172 0.454275 -0.536464
H34   H     H_    0.407243 0.279142 0.483573 0.242210
H35   H     H_    0.449852 0.349297 0.416154 0.232475
H36   H     H_    0.459279 0.314639 0.508687 0.233105
N3    N     N_2   0.419366 0.748981 0.600660 -0.425130
H37   H     H_    0.379905 0.754250 0.646444 0.233873
C191  C     C_3   0.427526 0.708237 0.521709 -0.577945
H38   H     H_    0.406075 0.656745 0.541570 0.214732
H39   H     H_    0.470571 0.696314 0.480741 0.230678
H40   H     H_    0.412224 0.738208 0.480532 0.242733
N4    N     N_2   0.564152 0.255059 0.451388 -0.411312
H41   H     H_    0.567472 0.274507 0.506412 0.255124
C192  C     C_3   0.613370 0.257307 0.369492 -0.611629
H42   H     H_    0.631030 0.311373 0.361354 0.236944
H43   H     H_    0.605623 0.246173 0.310966 0.224324
H44   H     H_    0.642458 0.217459 0.371334 0.222582
N5    N     N_2   0.015014 0.246895 0.612417 -0.439559
H45   H     H_    0.021846 0.250221 0.668064 0.292070
C193  C     C_3   0.053346 0.203482 0.540101 -0.613815
H46   H     H_    0.093161 0.206680 0.539252 0.238464
H47   H     H_    0.057098 0.220819 0.473912 0.209190
H48   H     H_    0.040249 0.146975 0.550579 0.238641
N6    N     N_2   0.982402 0.750824 0.406826 -0.423616
H49   H     H_    0.978272 0.741494 0.349411 0.250245
C194  C     C_3   0.943806 0.801109 0.467755 -0.534547
H50   H     H_    0.902997 0.779020 0.493645 0.241024
H51   H     H_    0.945177 0.851454 0.431762 0.230259
H52   H     H_    0.952941 0.813817 0.524459 0.232112
N7    N     N_2   0.919966 0.248585 0.594238 -0.456324
H53   H     H_    0.922061 0.215667 0.641915 0.273810
C195  C     C_3   0.927755 0.209863 0.514112 -0.595441
H54   H     H_    0.899225 0.164904 0.532092 0.222416
H55   H     H_    0.968954 0.187827 0.480150 0.223554
H56   H     H_    0.920614 0.245138 0.467101 0.256053
N8    N     N_2   0.058691 0.758077 0.468857 -0.415379
H57   H     H_    0.061254 0.775047 0.525510 0.257211
C196  C     C_3   0.107930 0.764853 0.387698 -0.595354
H58   H     H_    0.124329 0.819243 0.384475 0.234107
H59   H     H_    0.100589 0.756991 0.328171 0.230898
H60   H     H_    0.137839 0.724938 0.386327 0.223137
N9    N     N_R   0.097395 0.827794 0.769598 0.144182
O49   O     O_R   0.100776 0.883574 0.720852 -0.326850
O50   O     O_R   0.069182 0.773496 0.767442 -0.359167
N10   N     N_R   0.904073 0.177137 0.226456 0.143938
O51   O     O_R   0.904564 0.123960 0.276293 -0.306158
O52   O     O_R   0.929645 0.235196 0.225493 -0.336106
N11   N     N_R   0.868210 0.883477 0.251918 0.149499
O53   O     O_R   0.839944 0.942002 0.277446 -0.361697
O54   O     O_R   0.904870 0.870629 0.277983 -0.335314
N12   N     N_R   0.099967 0.181660 0.780126 0.133385
O55   O     O_R   0.093643 0.134728 0.727995 -0.324241
O56   O     O_R   0.074201 0.242227 0.796038 -0.378843
N13   N     N_R   0.602751 0.339309 0.762182 0.148485
O57   O     O_R   0.614945 0.398785 0.717231 -0.323382
O58   O     O_R   0.567106 0.297517 0.757534 -0.364342
N14   N     N_R   0.403804 0.672517 0.231123 0.146849
O59   O     O_R   0.401510 0.616989 0.279587 -0.302396
O60   O     O_R   0.430618 0.728139 0.234149 -0.338768
N15   N     N_R   0.366414 0.384699 0.251650 0.150184
O61   O     O_R   0.337742 0.442988 0.274620 -0.358967
O62   O     O_R   0.402658 0.374005 0.279241 -0.339778
N16   N     N_R   0.600071 0.680291 0.778944 0.132636
O63   O     O_R   0.594284 0.632973 0.726676 -0.319972
O64   O     O_R   0.573453 0.740192 0.795392 -0.384551
N17   N     N_R   0.221700 0.628915 0.746886 0.119070
O65   O     O_R   0.174015 0.614306 0.756749 -0.362530
O66   O     O_R   0.262598 0.598691 0.681746 -0.372928
N18   N     N_R   0.773736 0.364654 0.243652 0.138590
O67   O     O_R   0.733199 0.396915 0.307148 -0.342484
O68   O     O_R   0.821761 0.381530 0.230062 -0.325020
N19   N     N_R   0.778313 0.625022 0.256073 0.138322
O69   O     O_R   0.822255 0.622676 0.264745 -0.375644
O70   O     O_R   0.748977 0.567974 0.276582 -0.335825
N20   N     N_R   0.315216 0.188252 0.675745 0.136968
O71   O     O_R   0.300712 0.127245 0.656307 -0.395548
O72   O     O_R   0.365204 0.205759 0.633357 -0.404379
N21   N     N_R   0.723202 0.125143 0.737725 0.119910
O73   O     O_R   0.676586 0.110387 0.742779 -0.376606
O74   O     O_R   0.765512 0.097029 0.673210 -0.371819
N22   N     N_R   0.285951 0.872149 0.243503 0.124967
O75   O     O_R   0.244484 0.904955 0.304321 -0.351015
O76   O     O_R   0.333105 0.885406 0.237216 -0.331844
N23   N     N_R   0.281754 0.125450 0.262393 0.134962
O77   O     O_R   0.328806 0.116121 0.258679 -0.379489
O78   O     O_R   0.242274 0.088081 0.319273 -0.343171
N24   N     N_R   0.814665 0.685301 0.676409 0.135179
O79   O     O_R   0.798671 0.625486 0.656855 -0.392629
O80   O     O_R   0.865368 0.699317 0.636278 -0.405176
N25   N     N_2   0.293287 0.600355 0.820751 -0.450623
H61   H     H_    0.278382 0.555271 0.804611 0.289334
C197  C     C_3   0.347599 0.616976 0.758789 -0.605809
H62   H     H_    0.349252 0.634935 0.694542 0.247944
H63   H     H_    0.372970 0.568422 0.746417 0.220525
H64   H     H_    0.363595 0.659379 0.786669 0.241762
N26   N     N_2   0.717568 0.393219 0.142167 -0.436275
H65   H     H_    0.697655 0.418141 0.203304 0.297425
C198  C     C_3   0.756548 0.438077 0.074398 -0.554243
H66   H     H_    0.738418 0.490595 0.073747 0.211734
H67   H     H_    0.770319 0.413160 0.007217 0.223759
H68   H     H_    0.791258 0.446765 0.088594 0.261033
N27   N     N_2   0.680256 0.655592 0.224613 -0.435824
H69   H     H_    0.673730 0.630722 0.283442 0.294752
C199  C     C_3   0.643534 0.715039 0.241531 -0.676894
H70   H     H_    0.602174 0.697000 0.284096 0.232874
H71   H     H_    0.645190 0.735882 0.178196 0.254200
H72   H     H_    0.653223 0.758708 0.277023 0.223357
N28   N     N_2   0.334786 0.320619 0.769839 -0.433795
H73   H     H_    0.350187 0.325121 0.701388 0.285914
C200  C     C_3   0.310355 0.387197 0.814029 -0.695146
H74   H     H_    0.338880 0.431611 0.784108 0.232754
H75   H     H_    0.299692 0.385219 0.886435 0.244318
H76   H     H_    0.273884 0.398460 0.805454 0.236670
N29   N     N_2   0.792880 0.093338 0.815175 -0.444032
H77   H     H_    0.779608 0.048668 0.795159 0.289678
C201  C     C_3   0.846576 0.114239 0.755123 -0.638636
H78   H     H_    0.873329 0.066672 0.736879 0.220217
H79   H     H_    0.861438 0.154107 0.787932 0.235260
H80   H     H_    0.847551 0.137395 0.693421 0.254796
N30   N     N_2   0.255314 0.920375 0.113048 -0.453229
H81   H     H_    0.244021 0.951739 0.169327 0.298262
C202  C     C_3   0.298796 0.950595 0.035356 -0.608932
H82   H     H_    0.290382 0.008018 0.029872 0.220839
H83   H     H_    0.303325 0.922810 0.973492 0.234975
H84   H     H_    0.336580 0.946005 0.041599 0.254642
N31   N     N_2   0.193006 0.122863 0.211749 -0.435583
H85   H     H_    0.195757 0.071940 0.232693 0.288892
C203  C     C_3   0.152078 0.167307 0.278473 -0.614423
H86   H     H_    0.114082 0.137339 0.309330 0.220222
H87   H     H_    0.145498 0.216276 0.247032 0.232159
H88   H     H_    0.163605 0.182680 0.331720 0.240860
N32   N     N_2   0.836244 0.818276 0.766279 -0.433861
H89   H     H_    0.852207 0.820681 0.697586 0.284049
C204  C     C_3   0.812989 0.886388 0.806845 -0.703283
H90   H     H_    0.842507 0.929454 0.775228 0.233726
H91   H     H_    0.801753 0.886599 0.879506 0.243711
H92   H     H_    0.777055 0.897989 0.796795 0.235914

loop_
_geom_bond_atom_site_label_1
_geom_bond_atom_site_label_2
_geom_bond_distance
_ccdc_geom_bond_type
C28   N5    1.425281 S    
C163  H27   1.078417 S    
C203  H87   1.111297 S    
Cu2   Cu5   2.664655 S    
C191  H38   1.109007 S    
C199  H72   1.111817 S    
C151  C159  1.391413 A    
N13   O57   1.303237 A    
C193  H47   1.112516 S    
N5    H45   1.031083 S    
O37   C187  1.305462 A    
C187  O47   1.287624 A    
C44   C68   1.418949 A    
C118  C126  1.399657 A    
C46   C66   1.410429 A    
C4    C131  1.487399 S    
O33   Cu11  1.959547 S    
N29   C201  1.444331 S    
C83   C147  1.426700 A    
Cu6   O22   1.962326 S    
C6    O22   1.290059 A    
C201  H79   1.111269 S    
C149  C157  1.373790 A    
C86   C174  1.421428 A    
Cu4   O28   1.957006 S    
C112  C182  1.492488 S    
O3    Cu3   1.954212 S    
C19   C33   1.412670 A    
C55   C62   1.398451 A    
C154  C162  1.388295 A    
C91   C99   1.435942 A    
C33   C35   1.407652 A    
C36   C43   1.415781 A    
O25   C9    1.278598 A    
C137  C169  1.420539 A    
C101  C149  1.401215 A    
C37   C39   1.406669 A    
C114  C122  1.411918 A    
C71   H7    1.073015 S    
C105  C153  1.413263 A    
C97   C158  1.412109 A    
C158  H22   1.074123 S    
C53   C61   1.395393 A    
C3    O19   1.289933 A    
C101  C109  1.429669 A    
C98   C157  1.399782 A    
O35   Cu12  1.976071 S    
C150  H14   1.081310 S    
C38   C42   1.404621 A    
N19   O69   1.302016 A    
C168  N20   1.442033 S    
O38   C188  1.285535 A    
N18   O67   1.301240 A    
C152  C160  1.388491 A    
O13   Cu5   1.953973 S    
C20   C73   1.409030 A    
C154  H18   1.082393 S    
O33   C183  1.297613 A    
O34   C184  1.289147 A    
C57   C63   1.395467 A    
C48   C65   1.415147 A    
C100  C159  1.409697 A    
C23   C31   1.416308 A    
C8    O24   1.296541 A    
C119  N11   1.437359 S    
C198  H66   1.105031 S    
C172  C180  1.400581 A    
C105  C113  1.431694 A    
C199  H70   1.110654 S    
C78   C86   1.402817 A    
C139  C171  1.412544 A    
C84   C148  1.430637 A    
C123  C131  1.413426 A    
C26   N7    1.426256 S    
C137  C145  1.408987 A    
C124  C132  1.407367 A    
C81   C145  1.426945 A    
N30   C202  1.446199 S    
C79   C143  1.424539 A    
O2    C13   1.309938 A    
C197  H62   1.106705 S    
C52   C67   1.415265 A    
C107  C155  1.406463 A    
C164  H28   1.076883 S    
C200  H74   1.110364 S    
C7    C128  1.487492 S    
Cu12  O43   1.964835 S    
C118  N10   1.437884 S    
C190  H35   1.110308 S    
Cu3   O19   1.967588 S    
C202  H82   1.110713 S    
C173  N25   1.422472 S    
O10   Cu2   1.953973 S    
C18   C75   1.401013 A    
C106  C146  1.405670 A    
C107  C115  1.431581 A    
C140  C148  1.403272 A    
C47   C69   1.411794 A    
C93   C162  1.415331 A    
O4    Cu4   1.954214 S    
C77   C85   1.420715 A    
C54   C62   1.399670 A    
C117  N9    1.437968 S    
C196  H58   1.110360 S    
C63   H3    1.083611 S    
C130  C138  1.419904 A    
N31   H85   1.029606 S    
C177  N29   1.420761 S    
C166  C174  1.414489 A    
N27   C199  1.448499 S    
C16   C55   1.495363 S    
N8    C196  1.446872 S    
N17   O65   1.301508 A    
Cu10  O46   1.982253 S    
O32   C16   1.289763 A    
C122  C130  1.401408 A    
C120  N12   1.437442 S    
N24   O79   1.301520 A    
O15   C4    1.298289 A    
C18   C36   1.403031 A    
N4    C192  1.447265 S    
C47   C66   1.413443 A    
C27   N6    1.426449 S    
C134  C166  1.416100 A    
C22   C30   1.419298 A    
C34   C36   1.411900 A    
C22   C40   1.405255 A    
C191  H39   1.109964 S    
O7    C12   1.312145 A    
Cu2   O26   1.969212 S    
C165  N17   1.442565 S    
C38   C40   1.412797 A    
C35   C44   1.413215 A    
N7    C195  1.448170 S    
C201  H78   1.110043 S    
N22   O75   1.301517 A    
Cu9   Cu10  2.663929 S    
N9    O50   1.300917 A    
C52   C74   1.408725 A    
C85   C173  1.435056 A    
C19   C27   1.417027 A    
C45   C53   1.425830 A    
C47   C55   1.431900 A    
C198  H68   1.111158 S    
N32   C204  1.448451 S    
C181  O41   1.287453 A    
O36   C182  1.308747 A    
C167  N19   1.448344 S    
O28   C12   1.290255 A    
O16   C3    1.303894 A    
C183  O43   1.291455 A    
O29   C13   1.277475 A    
N1    H29   1.031181 S    
C192  H43   1.111356 S    
C119  C127  1.412286 A    
C103  C151  1.407000 A    
C117  C125  1.401367 A    
C204  H91   1.110144 S    
Cu5   O29   1.969212 S    
C194  H51   1.110074 S    
C200  H76   1.111611 S    
C88   C176  1.421204 A    
Cu7   O31   1.957007 S    
C99   C160  1.406243 A    
C180  N32   1.428099 S    
Cu8   O32   1.957006 S    
C103  C143  1.413478 A    
C156  H20   1.074679 S    
C202  H84   1.111290 S    
C157  H21   1.077625 S    
N12   O55   1.302349 A    
C103  C111  1.430109 A    
C50   C76   1.417987 A    
C51   C68   1.413122 A    
N20   O72   1.300869 A    
C126  C134  1.425470 A    
C108  C156  1.411964 A    
Cu2   O18   1.962326 S    
C109  C183  1.490922 S    
N16   O64   1.300510 A    
Cu4   Cu7   2.678745 S    
C110  C184  1.475416 S    
C196  H60   1.110840 S    
C188  O48   1.295901 A    
C51   C73   1.411349 A    
N3    H37   1.030128 S    
O5    Cu5   1.968554 S    
C124  N16   1.437384 S    
C161  H25   1.083321 S    
C20   C28   1.415389 A    
O9    C6    1.303110 A    
O26   C10   1.281142 A    
C17   C76   1.394905 A    
C185  O45   1.287635 A    
N19   O70   1.301195 A    
O35   C181  1.302871 A    
O11   C8    1.296703 A    
C19   C74   1.404339 A    
N15   O62   1.302767 A    
O12   C7    1.305814 A    
O13   C2    1.304357 A    
C112  C120  1.408106 A    
N17   O66   1.301480 A    
C5    O21   1.288179 A    
C1    C130  1.488178 S    
C115  C123  1.408753 A    
C197  H64   1.111413 S    
C11   C60   1.488728 S    
C116  C124  1.408423 A    
C195  H56   1.110321 S    
C13   C54   1.484882 S    
C24   C38   1.411216 A    
C134  C142  1.415880 A    
C34   C44   1.404571 A    
N10   O51   1.302537 A    
C199  H71   1.110086 S    
C123  N15   1.437705 S    
C39   C42   1.413667 A    
O1    Cu1   1.968554 S    
C31   N2    1.426372 S    
O14   Cu6   1.953973 S    
C22   C71   1.402435 A    
C92   C100  1.425498 A    
N29   H77   1.030220 S    
C21   C39   1.398310 A    
O7    Cu7   1.954212 S    
O8    Cu8   1.954214 S    
C33   C43   1.406089 A    
Cu12  O42   1.982253 S    
C79   C87   1.419862 A    
C153  C161  1.380610 A    
O37   Cu9   1.959547 S    
C101  C141  1.417988 A    
C170  C178  1.414611 A    
N2    H33   1.030720 S    
C91   C179  1.430098 A    
C73   H9    1.074944 S    
C165  C173  1.417122 A    
C75   H11   1.076370 S    
N5    C193  1.449060 S    
C48   C56   1.426486 A    
C166  N18   1.440345 S    
C176  N28   1.428030 S    
N26   H65   1.028777 S    
C108  C116  1.439169 A    
N21   O74   1.301352 A    
O11   Cu3   1.956196 S    
C85   C93   1.439137 A    
C104  C144  1.410769 A    
N14   O60   1.300888 A    
C45   C65   1.406825 A    
N25   C197  1.444530 S    
C127  C135  1.422448 A    
C89   C177  1.433569 A    
O6    Cu6   1.968552 S    
C136  C144  1.404818 A    
C125  C133  1.428069 A    
C168  C176  1.400297 A    
N28   C200  1.448473 S    
C14   C53   1.473941 S    
C128  C136  1.432324 A    
N13   O58   1.300907 A    
C129  C137  1.435593 A    
C49   C75   1.414733 A    
Cu3   O27   1.957007 S    
C25   C27   1.406079 A    
N18   O68   1.301434 A    
C189  H30   1.110931 S    
C132  C140  1.429638 A    
C17   C35   1.399631 A    
C111  C119  1.409732 A    
Cu11  O41   1.982253 S    
C155  H19   1.077466 S    
C120  C128  1.407505 A    
C107  C147  1.417024 A    
C59   C64   1.398954 A    
O39   Cu10  1.976071 S    
C121  C129  1.411058 A    
C195  H54   1.109845 S    
C184  O44   1.292061 A    
C56   C61   1.393646 A    
C203  H88   1.110878 S    
C170  N22   1.437410 S    
C79   C100  1.414499 A    
Cu1   O17   1.962324 S    
C102  C150  1.404263 A    
C171  C179  1.412362 A    
C193  H48   1.109415 S    
C136  C168  1.409920 A    
N6    H49   1.030657 S    
C106  C154  1.397987 A    
C159  H23   1.078096 S    
C45   C71   1.413633 A    
C140  C172  1.409305 A    
N4    H41   1.030044 S    
C15   C56   1.487812 S    
C171  N23   1.445020 S    
O39   C185  1.304590 A    
C60   C63   1.394013 A    
C116  C186  1.488309 S    
N11   O53   1.300861 A    
C115  C185  1.497101 S    
C151  H15   1.077935 S    
C190  H34   1.109702 S    
C182  O42   1.280269 A    
C149  H13   1.066392 S    
C110  C118  1.411370 A    
C37   C41   1.405670 A    
C58   C64   1.400024 A    
O30   C14   1.281793 A    
C21   C72   1.392104 A    
C155  C163  1.390126 A    
N23   O78   1.300455 A    
N14   O59   1.302623 A    
C153  H17   1.074007 S    
Cu6   O30   1.969212 S    
C41   C65   1.415091 A    
C5    C126  1.491371 S    
O4    C15   1.308857 A    
C43   C67   1.416666 A    
O5    C10   1.302297 A    
C64   H4    1.083349 S    
C138  C146  1.411235 A    
N27   H69   1.029097 S    
C82   C93   1.426124 A    
Cu9   O48   1.964832 S    
C72   H8    1.066351 S    
Cu10  O47   1.964835 S    
C92   C180  1.421065 A    
C17   C25   1.418363 A    
C78   C142  1.421161 A    
C102  C110  1.421053 A    
N24   O80   1.300725 A    
C76   H12   1.067940 S    
C80   C88   1.418614 A    
C81   C89   1.417522 A    
Cu1   Cu6   2.664655 S    
C90   C98   1.421138 A    
C138  C170  1.410521 A    
Cu3   Cu8   2.678745 S    
C84   C92   1.420483 A    
C189  H31   1.112714 S    
O10   C5    1.304265 A    
O27   C11   1.289866 A    
N7    H53   1.029787 S    
C186  O46   1.280052 A    
N22   O76   1.302695 A    
C105  C145  1.419293 A    
O14   C1    1.298642 A    
C48   C70   1.406834 A    
N9    O49   1.302776 A    
C94   C161  1.395476 A    
C90   C178  1.433230 A    
N8    H57   1.030117 S    
Cu4   O20   1.967586 S    
C2    C129  1.501869 S    
Cu5   O21   1.962324 S    
C4    O20   1.296935 A    
C169  C177  1.424321 A    
C203  H86   1.110211 S    
C198  H67   1.111396 S    
C80   C99   1.416663 A    
O38   Cu10  1.959544 S    
C81   C94   1.413583 A    
C167  C175  1.405324 A    
C25   N8    1.426116 S    
O36   Cu11  1.976071 S    
C201  H80   1.108250 S    
C26   C28   1.411779 A    
N15   O61   1.300936 A    
O2    Cu2   1.968552 S    
C192  H42   1.110330 S    
N30   H81   1.028694 S    
C50   C68   1.409940 A    
C88   C96   1.424428 A    
C204  H90   1.110322 S    
C89   C97   1.447096 A    
N28   H73   1.030778 S    
C108  C148  1.411047 A    
C135  C167  1.411410 A    
C194  H50   1.109256 S    
C200  H75   1.110156 S    
C87   C95   1.425334 A    
C133  C165  1.414789 A    
O12   Cu4   1.956196 S    
C42   C66   1.419529 A    
C139  C147  1.404307 A    
C190  H36   1.111587 S    
C202  H83   1.110921 S    
N12   O56   1.300541 A    
N26   C198  1.446682 S    
C82   C90   1.408455 A    
C175  N27   1.429860 S    
C113  C121  1.410984 A    
C46   C72   1.418745 A    
C32   N1    1.425036 S    
C189  H32   1.109440 S    
C29   C31   1.404772 A    
C3    C132  1.486063 S    
C152  H16   1.067262 S    
C46   C54   1.435260 A    
Cu8   O24   1.967586 S    
C9    C58   1.485520 S    
C23   C70   1.403578 A    
C2    O18   1.292196 A    
C193  H46   1.110705 S    
C196  H59   1.111212 S    
C29   N4    1.426482 S    
C8    C127  1.484075 S    
C87   C175  1.425301 A    
C178  N30   1.429362 S    
N31   C203  1.446423 S    
O15   Cu7   1.956196 S    
O16   Cu8   1.956196 S    
C111  C181  1.493113 S    
C150  C158  1.391169 A    
O34   Cu12  1.959544 S    
C18   C26   1.415439 A    
C197  H63   1.109938 S    
C61   H1    1.083590 S    
C195  H55   1.110121 S    
C122  N14   1.437797 S    
C30   N3    1.424277 S    
C191  H40   1.110137 S    
N10   O52   1.300817 A    
C95   C164  1.405089 A    
C169  N21   1.442420 S    
C49   C57   1.427139 A    
N6    C194  1.445977 S    
C102  C142  1.406565 A    
O1    C14   1.300937 A    
C179  N31   1.421714 S    
N23   O77   1.301762 A    
O3    C16   1.312706 A    
N32   H89   1.030765 S    
O40   Cu9   1.976071 S    
C78   C97   1.427951 A    
C69   H5    1.075386 S    
C162  H26   1.074419 S    
N11   O54   1.302617 A    
O8    C11   1.310229 A    
C172  N24   1.442316 S    
O9    Cu1   1.953973 S    
N1    C189  1.449469 S    
C174  N26   1.425540 S    
C192  H44   1.111029 S    
Cu11  Cu12  2.663929 S    
C104  C152  1.409137 A    
C96   C163  1.408807 A    
C204  H92   1.111609 S    
C52   C60   1.428431 A    
O31   C15   1.290903 A    
C23   C37   1.413962 A    
C194  H52   1.111326 S    
C21   C29   1.418305 A    
C82   C146  1.418320 A    
O40   C186  1.306827 A    
C10   C57   1.475591 S    
C24   C69   1.409613 A    
C135  C143  1.404730 A    
C133  C141  1.410568 A    
C40   C41   1.416811 A    
C131  C139  1.427062 A    
C77   C141  1.429377 A    
N21   O73   1.301548 A    
C49   C67   1.408773 A    
C12   C59   1.495406 S    
Cu9   O45   1.982253 S    
C86   C94   1.410324 A    
C51   C59   1.431463 A    
C109  C117  1.409902 A    
C77   C98   1.425174 A    
C160  H24   1.074834 S    
N25   H61   1.030353 S    
N16   O63   1.302381 A    
Cu7   O23   1.967588 S    
C20   C34   1.411155 A    
C83   C91   1.422538 A    
N3    C191  1.448141 S    
C6    C125  1.492726 S    
C7    O23   1.288723 A    
C62   H2    1.083379 S    
C24   C32   1.414913 A    
O6    C9    1.309337 A    
N20   O71   1.301566 A    
Cu1   O25   1.969212 S    
C84   C95   1.413681 A    
C70   H6    1.075885 S    
C106  C114  1.414681 A    
C104  C112  1.441798 A    
C156  C164  1.387805 A    
C83   C96   1.415398 A    
C113  C187  1.497886 S    
C1    O17   1.293305 A    
C80   C144  1.435287 A    
C114  C188  1.475162 S    
C30   C32   1.406565 A    
C74   H10   1.075385 S    
C50   C58   1.434427 A    
C121  N13   1.436641 S    
Cu11  O44   1.964832 S    
N2    C190  1.446005 S    
