data_str_m3_o38_o41_f0_fof.sym.68
_audit_creation_date              2013-03-05T15:40:18-0500
_audit_creation_method            fapswitch 2.2
_symmetry_space_group_name_H-M    P1
_symmetry_Int_Tables_number       1
_space_group_crystal_system       triclinic
_cell_length_a                    28.396022
_cell_length_b                    18.50016
_cell_length_c                    17.026109
_cell_angle_alpha                 90.622379
_cell_angle_beta                  60.609158
_cell_angle_gamma                 90.903736
_cell_volume                      7792.11657089

loop_
_atom_site_label
_atom_site_type_symbol
_atom_site_description
_atom_site_fract_x
_atom_site_fract_y
_atom_site_fract_z
_atom_type_partial_charge
O1    O     O_R   0.746490 0.236330 0.638080 -0.612851
O2    O     O_R   0.253510 0.763670 0.361920 -0.630392
O3    O     O_R   0.253510 0.236330 0.361920 -0.616134
O4    O     O_R   0.746490 0.763670 0.638080 -0.658594
O5    O     O_R   0.246490 0.736330 0.638080 -0.612865
O6    O     O_R   0.753510 0.263670 0.361920 -0.630422
O7    O     O_R   0.753510 0.736330 0.361920 -0.616126
O8    O     O_R   0.246490 0.263670 0.638080 -0.658598
O9    O     O_R   0.674170 0.186160 0.516270 -0.643765
O10   O     O_R   0.325830 0.813840 0.483730 -0.608739
O11   O     O_R   0.325830 0.186160 0.483730 -0.623719
O12   O     O_R   0.674170 0.813840 0.516270 -0.612345
O13   O     O_R   0.174170 0.686160 0.516270 -0.643539
O14   O     O_R   0.825830 0.313840 0.483730 -0.608743
O15   O     O_R   0.825830 0.686160 0.483730 -0.623719
O16   O     O_R   0.174170 0.313840 0.516270 -0.612345
O17   O     O_R   0.739960 0.127620 0.525000 -0.651117
O18   O     O_R   0.260040 0.872380 0.475000 -0.629835
O19   O     O_R   0.260040 0.127620 0.475000 -0.641818
O20   O     O_R   0.739960 0.872380 0.525000 -0.637323
O21   O     O_R   0.239960 0.627620 0.525000 -0.651130
O22   O     O_R   0.760040 0.372380 0.475000 -0.629845
O23   O     O_R   0.760040 0.627620 0.475000 -0.641812
O24   O     O_R   0.239960 0.372380 0.525000 -0.637331
O25   O     O_R   0.680700 0.294870 0.629350 -0.626830
O26   O     O_R   0.319300 0.705130 0.370650 -0.624824
O27   O     O_R   0.319300 0.294870 0.370650 -0.616840
O28   O     O_R   0.680700 0.705130 0.629350 -0.635759
O29   O     O_R   0.180700 0.794870 0.629350 -0.626778
O30   O     O_R   0.819300 0.205130 0.370650 -0.624832
O31   O     O_R   0.819300 0.794870 0.370650 -0.616842
O32   O     O_R   0.180700 0.205130 0.629350 -0.635771
C1    C     C_R   0.707450 0.279692 0.670946 0.911221
C2    C     C_R   0.299810 0.735051 0.323319 0.880492
C3    C     C_R   0.295066 0.274966 0.326546 0.925409
C4    C     C_R   0.698981 0.737647 0.677016 0.868109
C5    C     C_R   0.207454 0.779700 0.670942 0.911166
C6    C     C_R   0.799814 0.235058 0.323319 0.880550
C7    C     C_R   0.795068 0.774961 0.326543 0.925413
C8    C     C_R   0.198980 0.237650 0.677016 0.868106
C9    C     C_R   0.691196 0.129529 0.535862 0.887164
C10   C     C_R   0.308185 0.871092 0.468313 0.861054
C11   C     C_R   0.304465 0.128122 0.480042 0.892885
C12   C     C_R   0.691786 0.870781 0.533843 0.876667
C13   C     C_R   0.191194 0.629529 0.535869 0.887106
C14   C     C_R   0.808183 0.371093 0.468322 0.861089
C15   C     C_R   0.804463 0.628123 0.480051 0.892882
C16   C     C_R   0.191786 0.370780 0.533847 0.876656
Zn1   Zn    Zn3+2 0.792340 0.208750 0.507670 0.988684
Zn2   Zn    Zn3+2 0.207660 0.791250 0.492330 0.956052
Zn3   Zn    Zn3+2 0.207660 0.208750 0.492330 1.007460
Zn4   Zn    Zn3+2 0.792340 0.791250 0.507670 0.966729
Zn5   Zn    Zn3+2 0.292340 0.708750 0.507670 0.988684
Zn6   Zn    Zn3+2 0.707660 0.291250 0.492330 0.955668
Zn7   Zn    Zn3+2 0.707660 0.708750 0.492330 1.007480
Zn8   Zn    Zn3+2 0.292340 0.291250 0.507670 0.966727
C17   C     C_R   0.525705 0.127663 0.580366 -0.080694
C18   C     C_R   0.457748 0.870220 0.483406 -0.085413
C19   C     C_R   0.439377 0.129596 0.542864 -0.066829
C20   C     C_R   0.537956 0.867446 0.535597 -0.091696
C21   C     C_R   0.025678 0.627651 0.580468 -0.080825
C22   C     C_R   0.957727 0.370218 0.483482 -0.085412
C23   C     C_R   0.939357 0.629594 0.542941 -0.066812
C24   C     C_R   0.037938 0.367439 0.535667 -0.091686
C25   C     C_R   0.498380 0.192754 0.589154 0.219811
C26   C     C_R   0.480626 0.803561 0.486703 0.221452
C27   C     C_R   0.458854 0.195244 0.561611 0.196048
C28   C     C_R   0.519946 0.802104 0.514709 0.217681
C29   C     C_R   0.998367 0.692749 0.589225 0.219639
C30   C     C_R   0.980605 0.303558 0.486776 0.221451
C31   C     C_R   0.958840 0.695242 0.561681 0.196063
C32   C     C_R   0.019929 0.302099 0.514774 0.217688
C33   C     C_R   0.465538 0.064493 0.536633 -0.009416
C34   C     C_R   0.515619 0.933431 0.531153 -0.013307
C35   C     C_R   0.509064 0.063751 0.554543 -0.010815
C36   C     C_R   0.473622 0.934462 0.509541 -0.014265
C37   C     C_R   0.965511 0.564487 0.536727 -0.009408
C38   C     C_R   0.015594 0.433424 0.531239 -0.013335
C39   C     C_R   0.009034 0.563742 0.554648 -0.010731
C40   C     C_R   0.973597 0.434458 0.509627 -0.014262
C41   C     C_R   0.948241 0.500089 0.512446 0.028952
C42   C     C_R   0.034767 0.498402 0.550151 0.027167
C43   C     C_R   0.448266 0.000092 0.512361 0.028957
C44   C     C_R   0.534793 0.998410 0.550059 0.027203
C45   C     C_R   0.888529 0.436487 0.467325 0.035713
C46   C     C_R   0.103487 0.563974 0.570748 0.031604
C47   C     C_R   0.105732 0.432656 0.559951 0.033081
C48   C     C_R   0.876575 0.565347 0.502787 0.044374
C49   C     C_R   0.388542 0.936486 0.467270 0.035702
C50   C     C_R   0.603501 0.063981 0.570686 0.031529
C51   C     C_R   0.605742 0.932662 0.559904 0.033112
C52   C     C_R   0.376587 0.065344 0.502741 0.044355
C53   C     C_R   0.840565 0.436365 0.458982 -0.111484
C54   C     C_R   0.156631 0.564438 0.559797 -0.122020
C55   C     C_R   0.157491 0.434421 0.555565 -0.109076
C56   C     C_R   0.833397 0.564152 0.480823 -0.114207
C57   C     C_R   0.340570 0.936363 0.458952 -0.111488
C58   C     C_R   0.656636 0.064441 0.559775 -0.121983
C59   C     C_R   0.657493 0.934424 0.555548 -0.109073
C60   C     C_R   0.333401 0.064150 0.480797 -0.114212
C61   C     C_R   0.816888 0.500422 0.459136 -0.305756
C62   C     C_R   0.181112 0.499822 0.557459 -0.308786
C63   C     C_R   0.316890 0.000421 0.459114 -0.305752
C64   C     C_R   0.681111 0.999824 0.557455 -0.308802
H1    H     H_    0.782722 0.500099 0.447123 0.193598
H2    H     H_    0.221254 0.500472 0.550129 0.190887
H3    H     H_    0.282718 0.000097 0.447117 0.193598
H4    H     H_    0.721247 0.000472 0.550150 0.190868
C65   C     C_R   0.904825 0.500886 0.493185 0.061001
C66   C     C_R   0.081165 0.498297 0.560898 0.069349
C67   C     C_R   0.404843 0.000886 0.493120 0.060996
C68   C     C_R   0.581182 0.998305 0.560830 0.069364
C69   C     C_R   0.077777 0.368158 0.561601 -0.155773
C70   C     C_R   0.892610 0.627654 0.534426 -0.145985
C71   C     C_R   0.919763 0.374104 0.453450 -0.146617
C72   C     C_R   0.071842 0.626465 0.590900 -0.204617
C73   C     C_R   0.577788 0.868165 0.561548 -0.155812
C74   C     C_R   0.392622 0.127649 0.534381 -0.145952
C75   C     C_R   0.419778 0.874104 0.453386 -0.146634
C76   C     C_R   0.571864 0.126480 0.590804 -0.204374
H5    H     H_    0.085536 0.318045 0.584362 0.210768
H6    H     H_    0.867847 0.674618 0.559963 0.185144
H7    H     H_    0.915929 0.328579 0.416875 0.210024
H8    H     H_    0.083337 0.674795 0.613636 0.209722
H9    H     H_    0.585539 0.818054 0.584324 0.210765
H10   H     H_    0.367850 0.174602 0.559951 0.185114
H11   H     H_    0.415936 0.828578 0.416822 0.210040
H12   H     H_    0.583348 0.174810 0.613556 0.209700
C77   C     C_R   0.710572 0.251011 0.962413 -0.105319
C78   C     C_R   0.266968 0.709014 0.058375 -0.100586
C79   C     C_R   0.294622 0.245672 0.032056 -0.108838
C80   C     C_R   0.732053 0.721610 0.939756 -0.096592
C81   C     C_R   0.210587 0.751007 0.962396 -0.105309
C82   C     C_R   0.766932 0.209013 0.058434 -0.100556
C83   C     C_R   0.794633 0.745653 0.032048 -0.108839
C84   C     C_R   0.232048 0.221620 0.939757 -0.096605
C85   C     C_R   0.751883 0.197550 0.926419 -0.140380
C86   C     C_R   0.216764 0.746067 0.102370 -0.142167
C87   C     C_R   0.256365 0.188147 0.057317 -0.140740
C88   C     C_R   0.776210 0.772915 0.907867 -0.135583
C89   C     C_R   0.251935 0.697592 0.926348 -0.140425
C90   C     C_R   0.716764 0.246165 0.102379 -0.142211
C91   C     C_R   0.756373 0.688130 0.057310 -0.140741
C92   C     C_R   0.276204 0.272929 0.907870 -0.135581
C93   C     C_R   0.783809 0.184467 0.968403 0.287658
C94   C     C_R   0.193963 0.775446 0.051871 0.286686
C95   C     C_R   0.221279 0.182555 0.019820 0.284059
C96   C     C_R   0.803084 0.788648 0.957934 0.279920
C97   C     C_R   0.283872 0.684529 0.968315 0.287680
C98   C     C_R   0.693981 0.275528 0.051842 0.286547
C99   C     C_R   0.721284 0.682544 0.019819 0.284066
C100  C     C_R   0.303074 0.288665 0.957940 0.279950
C101  C     C_R   0.633553 0.310750 0.945383 -0.150514
C102  C     C_R   0.339680 0.642773 0.080825 -0.134280
C103  C     C_R   0.372069 0.301685 0.050282 -0.149539
C104  C     C_R   0.661090 0.649094 0.914132 -0.144299
C105  C     C_R   0.133562 0.810759 0.945374 -0.150555
C106  C     C_R   0.839651 0.142751 0.080878 -0.134302
C107  C     C_R   0.872077 0.801674 0.050277 -0.149551
C108  C     C_R   0.161092 0.149095 0.914125 -0.144327
H13   H     H_    0.605313 0.305357 0.016174 0.195214
H14   H     H_    0.341425 0.599225 0.037195 0.217117
H15   H     H_    0.399319 0.299897 0.978397 0.188439
H16   H     H_    0.662842 0.603142 0.950256 0.207210
H17   H     H_    0.105314 0.805354 0.016157 0.195307
H18   H     H_    0.841381 0.099184 0.037283 0.217113
H19   H     H_    0.899328 0.799888 0.978392 0.188422
H20   H     H_    0.162847 0.103142 0.950245 0.207184
C109  C     C_R   0.618160 0.352343 0.892359 -0.114492
C110  C     C_R   0.378383 0.644254 0.110510 -0.131889
C111  C     C_R   0.384508 0.347454 0.104639 -0.096298
C112  C     C_R   0.620642 0.647664 0.888663 -0.137588
C113  C     C_R   0.118167 0.852352 0.892353 -0.114564
C114  C     C_R   0.878371 0.144240 0.110530 -0.131930
C115  C     C_R   0.884511 0.847448 0.104635 -0.096275
C116  C     C_R   0.120642 0.147665 0.888660 -0.137584
C117  C     C_R   0.649172 0.353204 0.799331 -0.076007
C118  C     C_R   0.372235 0.690087 0.180068 -0.058119
C119  C     C_R   0.352711 0.347715 0.197535 -0.081844
C120  C     C_R   0.625148 0.692557 0.819951 -0.049229
C121  C     C_R   0.149178 0.853216 0.799324 -0.075975
C122  C     C_R   0.872237 0.190081 0.180073 -0.058083
C123  C     C_R   0.852713 0.847709 0.197531 -0.081840
C124  C     C_R   0.125145 0.192559 0.819951 -0.049209
C125  C     C_R   0.690070 0.304476 0.761652 -0.126012
C126  C     C_R   0.324109 0.725693 0.225569 -0.131895
C127  C     C_R   0.314810 0.293599 0.234027 -0.123697
C128  C     C_R   0.672066 0.732088 0.775576 -0.128834
C129  C     C_R   0.190077 0.804490 0.761644 -0.126004
C130  C     C_R   0.824119 0.225704 0.225568 -0.131930
C131  C     C_R   0.814815 0.793588 0.234022 -0.123686
C132  C     C_R   0.172061 0.232095 0.775578 -0.128837
C133  C     C_R   0.714623 0.281316 0.811353 -0.192458
C134  C     C_R   0.294440 0.740078 0.180620 -0.204934
C135  C     C_R   0.293499 0.261261 0.182572 -0.197961
C136  C     C_R   0.699053 0.752767 0.823071 -0.232191
C137  C     C_R   0.214634 0.781338 0.811343 -0.192474
C138  C     C_R   0.794457 0.240101 0.180618 -0.205021
C139  C     C_R   0.793510 0.761240 0.182564 -0.197946
C140  C     C_R   0.199047 0.252777 0.823075 -0.232193
H21   H     H_    0.755837 0.264475 0.774058 0.174145
H22   H     H_    0.266496 0.783771 0.206162 0.162662
H23   H     H_    0.254513 0.235384 0.217585 0.171025
H24   H     H_    0.719406 0.803503 0.802735 0.164921
H25   H     H_    0.255851 0.764510 0.774043 0.174134
H26   H     H_    0.766561 0.283841 0.206124 0.162670
H27   H     H_    0.754527 0.735353 0.217575 0.171022
H28   H     H_    0.219397 0.303516 0.802746 0.164913
C141  C     C_R   0.685929 0.281116 0.906590 0.130232
C142  C     C_R   0.300661 0.697333 0.106375 0.121609
C143  C     C_R   0.321196 0.266845 0.088119 0.126830
C144  C     C_R   0.697191 0.708771 0.892731 0.129892
C145  C     C_R   0.185940 0.781127 0.906581 0.130176
C146  C     C_R   0.800639 0.197327 0.106418 0.121595
C147  C     C_R   0.821206 0.766826 0.088112 0.126823
C148  C     C_R   0.197188 0.208777 0.892729 0.129896
O33   O     O_R   0.062020 0.072840 0.007170 -0.573614
O34   O     O_R   0.937980 0.927160 0.992830 -0.564618
O35   O     O_R   0.937980 0.072840 0.992830 -0.576077
O36   O     O_R   0.062020 0.927160 0.007170 -0.578002
O37   O     O_R   0.562020 0.572840 0.007170 -0.573619
O38   O     O_R   0.437980 0.427160 0.992830 -0.564617
O39   O     O_R   0.437980 0.572840 0.992830 -0.576101
O40   O     O_R   0.562020 0.427160 0.007170 -0.577966
O41   O     O_R   0.947860 0.073950 0.109290 -0.635473
O42   O     O_R   0.052140 0.926050 0.890710 -0.638183
O43   O     O_R   0.052140 0.073950 0.890710 -0.635284
O44   O     O_R   0.947860 0.926050 0.109290 -0.645415
O45   O     O_R   0.447860 0.573950 0.109290 -0.635492
O46   O     O_R   0.552140 0.426050 0.890710 -0.638193
O47   O     O_R   0.552140 0.573950 0.890710 -0.635293
O48   O     O_R   0.447860 0.426050 0.109290 -0.645420
C149  C     C_R   0.076349 0.096739 0.930640 0.918145
C150  C     C_R   0.927458 0.899004 0.065056 0.888157
C151  C     C_R   0.923687 0.096190 0.069315 0.922000
C152  C     C_R   0.073169 0.899887 0.933846 0.880694
C153  C     C_R   0.576348 0.596740 0.930641 0.918136
C154  C     C_R   0.427457 0.399005 0.065057 0.888159
C155  C     C_R   0.423695 0.596201 0.069306 0.921996
C156  C     C_R   0.573166 0.399885 0.933849 0.880694
Zn9   Zn    Zn3+2 0.505960 0.500000 0.080520 1.046937
Zn10  Zn    Zn3+2 0.494040 0.500000 0.919480 1.067949
Zn11  Zn    Zn3+2 0.005960 1.000000 0.080520 1.046933
Zn12  Zn    Zn3+2 0.994040 0.000000 0.919480 1.067951
N1    N     N_R   0.042689 0.234305 0.518838 0.212872
O49   O     O_R   0.011170 0.180138 0.562394 -0.377888
O50   O     O_R   0.094445 0.223942 0.470083 -0.399737
N2    N     N_R   0.943950 0.763754 0.541206 0.185211
O51   O     O_R   0.942928 0.822086 0.585318 -0.316514
O52   O     O_R   0.940230 0.770225 0.468378 -0.403589
N3    N     N_R   0.963380 0.236963 0.463793 0.207880
O53   O     O_R   0.998843 0.189254 0.413580 -0.369317
O54   O     O_R   0.912253 0.220059 0.501713 -0.435576
N4    N     N_R   0.010259 0.755513 0.627266 0.228896
O55   O     O_R   0.037115 0.810230 0.576958 -0.390927
O56   O     O_R   0.997639 0.755461 0.711776 -0.386275
N5    N     N_R   0.542699 0.734310 0.518793 0.212868
O57   O     O_R   0.511175 0.680149 0.562356 -0.377917
O58   O     O_R   0.594455 0.723939 0.470051 -0.399722
N6    N     N_R   0.443953 0.263754 0.541148 0.185223
O59   O     O_R   0.442918 0.322084 0.585271 -0.316498
O60   O     O_R   0.440225 0.270224 0.468328 -0.403605
N7    N     N_R   0.463404 0.736964 0.463719 0.207861
O61   O     O_R   0.498869 0.689249 0.413527 -0.369303
O62   O     O_R   0.412278 0.720061 0.501625 -0.435619
N8    N     N_R   0.510214 0.255488 0.627321 0.228818
O63   O     O_R   0.537005 0.310290 0.577132 -0.390777
O64   O     O_R   0.497593 0.255335 0.711830 -0.386362
N9    N     N_R   0.655265 0.332157 0.091686 0.176749
O65   O     O_R   0.668268 0.397765 0.060989 -0.348140
O66   O     O_R   0.607349 0.318730 0.159250 -0.397973
N10   N     N_R   0.333733 0.647050 0.917489 0.172528
O67   O     O_R   0.379428 0.681706 0.888726 -0.429126
O68   O     O_R   0.333686 0.579160 0.896530 -0.376379
N11   N     N_R   0.337365 0.351962 0.934879 0.189071
O69   O     O_R   0.321893 0.408100 0.988043 -0.387782
O70   O     O_R   0.382008 0.355517 0.857983 -0.330066
N12   N     N_R   0.671830 0.642506 0.070277 0.172329
O71   O     O_R   0.626000 0.676231 0.108993 -0.423179
O72   O     O_R   0.672423 0.572906 0.080457 -0.361527
N13   N     N_R   0.155184 0.831990 0.091819 0.176681
O73   O     O_R   0.168138 0.897659 0.061324 -0.348094
O74   O     O_R   0.107266 0.818429 0.159310 -0.398099
N14   N     N_R   0.833639 0.146915 0.917607 0.172537
O75   O     O_R   0.879360 0.181523 0.888741 -0.429133
O76   O     O_R   0.833536 0.079018 0.896719 -0.376325
N15   N     N_R   0.837373 0.851946 0.934874 0.189085
O77   O     O_R   0.821899 0.908084 0.988039 -0.387668
O78   O     O_R   0.882014 0.855505 0.857976 -0.330074
N16   N     N_R   0.171830 0.142505 0.070269 0.172328
O79   O     O_R   0.125996 0.176219 0.108988 -0.423196
O80   O     O_R   0.172432 0.072906 0.080443 -0.361580
C157  C     C_R   0.760580 0.153156 0.846505 0.146188
C158  C     C_R   0.716381 0.116348 0.847853 -0.157995
C159  C     C_R   0.721095 0.085219 0.769084 -0.169579
C160  C     C_R   0.770293 0.088864 0.688674 -0.107440
C161  C     C_R   0.815058 0.122726 0.687199 -0.115645
C162  C     C_R   0.810396 0.154904 0.765412 -0.085717
H29   H     H_    0.677630 0.114516 0.909118 0.140334
H30   H     H_    0.686602 0.058360 0.770318 0.141398
H31   H     H_    0.774096 0.064066 0.628038 0.136908
H32   H     H_    0.853244 0.124573 0.625167 0.193209
H33   H     H_    0.844679 0.184619 0.761228 0.180413
C163  C     C_R   0.183937 0.745639 0.202282 0.153345
C164  C     C_R   0.169850 0.678979 0.247559 -0.141981
C165  C     C_R   0.142819 0.676892 0.341525 -0.150950
C166  C     C_R   0.129594 0.741216 0.390815 -0.002916
C167  C     C_R   0.142309 0.807816 0.346877 -0.091127
C168  C     C_R   0.169318 0.810266 0.252823 -0.097946
H34   H     H_    0.180792 0.628679 0.209920 0.139079
H35   H     H_    0.132864 0.625469 0.376128 0.144310
H36   H     H_    0.110408 0.739279 0.463055 0.173440
H37   H     H_    0.132276 0.857492 0.385658 0.146125
H38   H     H_    0.180981 0.862234 0.219547 0.173204
C169  C     C_R   0.254210 0.131171 0.120445 0.137855
C170  C     C_R   0.299653 0.087912 0.095721 -0.121340
C171  C     C_R   0.298670 0.034535 0.154093 -0.129276
C172  C     C_R   0.252460 0.024042 0.237779 -0.133470
C173  C     C_R   0.207158 0.067029 0.263380 -0.089553
C174  C     C_R   0.207885 0.120361 0.205199 -0.044200
H39   H     H_    0.335777 0.095469 0.031103 0.134603
H40   H     H_    0.333786 0.001310 0.134450 0.132118
H41   H     H_    0.251823 0.982763 0.282898 0.127629
H42   H     H_    0.171531 0.059243 0.328510 0.153102
H43   H     H_    0.172815 0.154136 0.226818 0.176876
C175  C     C_R   0.793211 0.817868 0.827104 0.132748
C176  C     C_R   0.819031 0.787725 0.740012 -0.109793
C177  C     C_R   0.830120 0.831324 0.666017 0.005305
C178  C     C_R   0.821527 0.905704 0.677025 -0.102597
C179  C     C_R   0.799070 0.936076 0.763029 -0.119378
C180  C     C_R   0.782669 0.892302 0.837897 -0.079780
H44   H     H_    0.827023 0.730332 0.730390 0.122161
H45   H     H_    0.845610 0.807653 0.599819 0.173226
H46   H     H_    0.832186 0.939599 0.619107 0.126165
H47   H     H_    0.793847 0.993310 0.772980 0.188538
H48   H     H_    0.762480 0.916601 0.904413 0.172579
C181  C     C_R   0.260638 0.653199 0.846428 0.146131
C182  C     C_R   0.216445 0.616371 0.847781 -0.158000
C183  C     C_R   0.221162 0.585233 0.769014 -0.169547
C184  C     C_R   0.270359 0.588883 0.688603 -0.107412
C185  C     C_R   0.315119 0.622764 0.687124 -0.115571
C186  C     C_R   0.310452 0.654959 0.765333 -0.085647
H49   H     H_    0.177695 0.614529 0.909047 0.140346
H50   H     H_    0.186673 0.558359 0.770250 0.141392
H51   H     H_    0.274166 0.564076 0.627969 0.136874
H52   H     H_    0.353306 0.624614 0.625093 0.193230
H53   H     H_    0.344730 0.684690 0.761144 0.180372
C187  C     C_R   0.683977 0.245980 0.202295 0.153381
C188  C     C_R   0.669782 0.179443 0.247838 -0.142054
C189  C     C_R   0.642825 0.177599 0.341812 -0.150532
C190  C     C_R   0.629784 0.242042 0.390843 -0.002403
C191  C     C_R   0.642594 0.308524 0.346639 -0.091927
C192  C     C_R   0.669521 0.310732 0.252580 -0.097788
H54   H     H_    0.680592 0.129050 0.210402 0.139062
H55   H     H_    0.632796 0.126268 0.376617 0.144368
H56   H     H_    0.610683 0.240285 0.463085 0.173603
H57   H     H_    0.632710 0.358295 0.385211 0.145615
H58   H     H_    0.681269 0.362606 0.219092 0.173261
C193  C     C_R   0.754221 0.631146 0.120428 0.137828
C194  C     C_R   0.799659 0.587872 0.095681 -0.121314
C195  C     C_R   0.798672 0.534474 0.154032 -0.129257
C196  C     C_R   0.752464 0.523975 0.237720 -0.133684
C197  C     C_R   0.707169 0.566979 0.263345 -0.089617
C198  C     C_R   0.707899 0.620332 0.205185 -0.044140
H59   H     H_    0.835779 0.595430 0.031058 0.134585
H60   H     H_    0.833784 0.501235 0.134370 0.132107
H61   H     H_    0.751823 0.482677 0.282821 0.127605
H62   H     H_    0.671544 0.559189 0.328477 0.153069
H63   H     H_    0.672833 0.654117 0.226820 0.176871
C199  C     C_R   0.293212 0.317868 0.827093 0.132789
C200  C     C_R   0.319022 0.287705 0.740013 -0.109847
C201  C     C_R   0.330119 0.331290 0.666004 0.005326
C202  C     C_R   0.321546 0.405674 0.676984 -0.102495
C203  C     C_R   0.299101 0.436067 0.762975 -0.119439
C204  C     C_R   0.282689 0.392308 0.837859 -0.079831
H64   H     H_    0.327000 0.230309 0.730410 0.122172
H65   H     H_    0.345601 0.307604 0.599815 0.173235
H66   H     H_    0.332214 0.439557 0.619052 0.126160
H67   H     H_    0.293897 0.493304 0.772902 0.188508
H68   H     H_    0.262507 0.416622 0.904365 0.172547
C205  C     C_R   0.648402 0.413505 0.742185 0.132970
C206  C     C_R   0.685622 0.470855 0.720606 -0.195266
C207  C     C_R   0.689395 0.524387 0.660585 -0.108228
C208  C     C_R   0.656663 0.520537 0.620523 -0.136070
C209  C     C_R   0.618539 0.464659 0.643251 -0.180792
C210  C     C_R   0.614087 0.411465 0.704277 0.012264
H69   H     H_    0.712231 0.473428 0.749331 0.143400
H70   H     H_    0.718073 0.568430 0.644714 0.143837
H71   H     H_    0.660023 0.561637 0.573246 0.165521
H72   H     H_    0.592710 0.462284 0.613103 0.170484
H73   H     H_    0.585150 0.367571 0.720111 0.169672
C211  C     C_R   0.417892 0.712304 0.194740 0.119218
C212  C     C_R   0.444273 0.778773 0.160089 -0.184573
C213  C     C_R   0.488550 0.799889 0.170070 -0.180577
C214  C     C_R   0.507332 0.754250 0.213266 -0.048113
C215  C     C_R   0.481309 0.688028 0.247607 -0.049211
C216  C     C_R   0.435629 0.668353 0.241434 -0.079450
H74   H     H_    0.430806 0.813853 0.124678 0.141956
H75   H     H_    0.508772 0.851098 0.143146 0.145085
H76   H     H_    0.542198 0.769955 0.219587 0.177400
H77   H     H_    0.496836 0.651147 0.277825 0.198356
H78   H     H_    0.415563 0.617511 0.269565 0.150294
C217  C     C_R   0.350577 0.410529 0.255535 0.134580
C218  C     C_R   0.311492 0.463934 0.276644 -0.188781
C219  C     C_R   0.305758 0.519809 0.336513 -0.112181
C220  C     C_R   0.338676 0.522416 0.376288 -0.134297
C221  C     C_R   0.378252 0.470245 0.354638 -0.192488
C222  C     C_R   0.384394 0.414577 0.294340 0.010762
H79   H     H_    0.285030 0.461626 0.247634 0.148764
H80   H     H_    0.275462 0.560671 0.352631 0.148832
H81   H     H_    0.334120 0.565339 0.423046 0.168480
H82   H     H_    0.403935 0.472685 0.385059 0.154481
H83   H     H_    0.414541 0.373632 0.279304 0.148356
C223  C     C_R   0.579564 0.710128 0.804024 0.128650
C224  C     C_R   0.553634 0.776890 0.834349 -0.188153
C225  C     C_R   0.512244 0.796304 0.816951 -0.166701
C226  C     C_R   0.496083 0.748960 0.769953 -0.037193
C227  C     C_R   0.521388 0.682292 0.740230 -0.070057
C228  C     C_R   0.563843 0.663785 0.755026 -0.084101
H84   H     H_    0.565747 0.814025 0.870998 0.140835
H85   H     H_    0.492633 0.847946 0.840081 0.144716
H86   H     H_    0.463903 0.763831 0.756775 0.167943
H87   H     H_    0.508145 0.644644 0.705916 0.194862
H88   H     H_    0.583716 0.612863 0.729830 0.150199
C229  C     C_R   0.148407 0.913518 0.742182 0.132922
C230  C     C_R   0.185624 0.970870 0.720608 -0.195301
C231  C     C_R   0.189394 0.024405 0.660592 -0.108221
C232  C     C_R   0.156661 0.020557 0.620533 -0.136067
C233  C     C_R   0.118540 0.964676 0.643255 -0.180726
C234  C     C_R   0.114092 0.911478 0.704274 0.012282
H89   H     H_    0.212234 0.973441 0.749331 0.143385
H90   H     H_    0.218072 0.068448 0.644723 0.143844
H91   H     H_    0.160018 0.061660 0.573261 0.165537
H92   H     H_    0.092710 0.962303 0.613109 0.170502
H93   H     H_    0.085157 0.867582 0.720104 0.169712
C235  C     C_R   0.917902 0.212298 0.194724 0.119234
C236  C     C_R   0.944294 0.278753 0.160036 -0.184595
C237  C     C_R   0.988574 0.299872 0.170005 -0.180531
C238  C     C_R   0.007347 0.254247 0.213228 -0.048110
C239  C     C_R   0.981315 0.188038 0.247603 -0.049298
C240  C     C_R   0.935633 0.168360 0.241436 -0.079424
H94   H     H_    0.930832 0.313822 0.124608 0.141943
H95   H     H_    0.008804 0.351070 0.143053 0.145074
H96   H     H_    0.042215 0.269956 0.219542 0.177389
H97   H     H_    0.996835 0.151170 0.277844 0.198359
H98   H     H_    0.915561 0.117527 0.269590 0.150275
C241  C     C_R   0.850576 0.910524 0.255532 0.134560
C242  C     C_R   0.811490 0.963927 0.276638 -0.188787
C243  C     C_R   0.805754 0.019804 0.336506 -0.112164
C244  C     C_R   0.838672 0.022416 0.376281 -0.134282
C245  C     C_R   0.878249 0.970246 0.354633 -0.192488
C246  C     C_R   0.884393 0.914576 0.294337 0.010766
H99   H     H_    0.785028 0.961617 0.247628 0.148784
H100  H     H_    0.775458 0.060665 0.352623 0.148822
H101  H     H_    0.834115 0.065339 0.423038 0.168485
H102  H     H_    0.903932 0.972689 0.385054 0.154470
H103  H     H_    0.914541 0.873632 0.279302 0.148364
C247  C     C_R   0.079554 0.210138 0.804049 0.128623
C248  C     C_R   0.053610 0.276885 0.834427 -0.188136
C249  C     C_R   0.012198 0.296296 0.817083 -0.166745
C250  C     C_R   0.996028 0.248962 0.770088 -0.037355
C251  C     C_R   0.021349 0.182309 0.740309 -0.070070
C252  C     C_R   0.063826 0.163806 0.755050 -0.084083
H104  H     H_    0.065726 0.314010 0.871082 0.140839
H105  H     H_    0.992575 0.347926 0.840258 0.144702
H106  H     H_    0.963829 0.263828 0.756957 0.167939
H107  H     H_    0.008099 0.144667 0.705999 0.194878
H108  H     H_    0.083707 0.112893 0.729820 0.150187

loop_
_geom_bond_atom_site_label_1
_geom_bond_atom_site_label_2
_geom_bond_distance
_ccdc_geom_bond_type
C248  C249  1.398363 A    
O4    C4    1.264854 A    
O5    C5    1.262968 A    
C138  H26   1.070432 S    
C229  C230  1.403448 A    
C210  H73   1.083312 S    
O7    Zn7   2.012887 S    
O31   Zn4   2.069263 S    
C212  H74   1.083297 S    
O8    Zn8   2.012887 S    
C181  C182  1.408742 A    
O38   Zn10  1.981720 S    
C236  C237  1.398207 A    
C130  C138  1.417867 A    
C44   C68   1.416352 A    
C172  H41   1.082723 S    
C110  C118  1.389943 A    
N14   O75   1.300535 A    
C46   C66   1.407758 A    
C186  H53   1.082069 S    
C194  H59   1.083187 S    
C12   C59   1.464457 S    
C135  H23   1.073229 S    
C164  H34   1.083451 S    
C133  H21   1.071323 S    
C201  C202  1.395795 A    
C102  C110  1.417039 A    
N7    O62   1.300921 A    
C2    C126  1.465044 S    
N4    O56   1.301034 A    
C106  C114  1.417085 A    
N10   O67   1.300532 A    
C6    C130  1.465030 S    
C161  H32   1.080728 S    
N15   O78   1.302173 A    
C175  C176  1.405400 A    
C121  C229  1.495609 S    
C136  H24   1.062287 S    
C19   C33   1.400653 A    
C226  H86   1.082369 S    
C55   C62   1.381907 A    
C230  H89   1.083258 S    
O2    C2    1.267705 A    
C91   C99   1.424968 A    
C140  H28   1.062302 S    
N1    O49   1.300604 A    
C33   C35   1.411162 A    
O6    Zn6   2.011070 S    
C25   N8    1.437994 S    
C36   C43   1.409713 A    
N2    O52   1.302004 A    
C37   C39   1.411195 A    
O43   C149  1.247347 A    
C71   H7    1.077600 S    
C179  C180  1.387598 A    
O48   Zn9   1.995902 S    
N3    O53   1.300241 A    
O23   C15   1.305692 A    
C184  C185  1.397420 A    
C247  C248  1.405671 A    
C10   C57   1.467822 S    
O33   C149  1.243111 A    
C190  H56   1.074076 S    
O27   C3    1.290826 A    
O37   C153  1.243105 A    
C170  C171  1.398874 A    
C4    C128  1.467361 S    
C231  C232  1.397601 A    
C219  H80   1.082183 S    
C177  H45   1.079054 S    
C89   C181  1.496376 S    
C7    C131  1.432957 S    
C38   C42   1.410023 A    
O42   Zn12  2.024082 S    
C244  H101  1.081426 S    
C8    C132  1.467371 S    
C185  H52   1.080724 S    
C191  C192  1.396253 A    
C165  C166  1.394454 A    
C197  C198  1.398451 A    
C20   C73   1.401648 A    
C57   C63   1.371055 A    
C94   N13   1.433593 S    
C216  H78   1.078773 S    
C48   C65   1.410535 A    
C160  C161  1.397422 A    
O30   Zn1   2.068405 S    
C23   C31   1.423567 A    
N9    O66   1.302145 A    
C205  C206  1.403446 A    
O41   Zn11  2.024081 S    
C105  H17   1.075673 S    
C26   N7    1.438267 S    
C138  C146  1.420562 A    
C235  C236  1.405081 A    
C115  C123  1.383889 A    
C245  H102  1.082311 S    
C248  H104  1.083308 S    
C129  C137  1.407880 A    
C116  C124  1.394867 A    
C52   C67   1.410521 A    
O23   Zn7   2.045033 S    
O24   Zn8   2.045033 S    
C212  C213  1.398218 A    
O9    C9    1.274566 A    
C225  C226  1.396636 A    
C102  C142  1.410077 A    
O39   C155  1.233559 A    
C219  C220  1.397816 A    
C242  C243  1.397717 A    
O13   C13   1.274590 A    
C28   N5    1.437667 S    
C101  H13   1.075713 S    
C18   C75   1.404661 A    
C107  H19   1.080835 S    
C203  H67   1.071557 S    
C132  C140  1.407063 A    
C189  C190  1.394383 A    
C47   C69   1.415500 A    
C167  H37   1.082658 S    
C227  H87   1.079995 S    
C118  C126  1.371070 A    
C77   C85   1.430980 A    
C54   C62   1.382694 A    
O12   C12   1.254144 A    
C200  H64   1.083067 S    
C49   C57   1.436992 A    
C193  C194  1.405303 A    
C88   C175  1.475172 S    
C239  H97   1.079084 S    
C63   H3    1.085207 S    
O9    Zn6   2.104468 S    
O8    C8    1.264867 A    
C251  H107  1.079995 S    
C33   C43   1.414425 A    
O11   Zn8   2.123911 S    
C134  H22   1.070541 S    
C198  H63   1.082797 S    
C195  H60   1.082376 S    
C188  C189  1.394751 A    
C136  C144  1.424788 A    
C197  H62   1.082430 S    
C190  C191  1.395990 A    
O16   Zn3   2.123911 S    
C114  C122  1.389946 A    
C199  C200  1.405390 A    
C18   C36   1.407900 A    
C240  H98   1.078767 S    
O22   Zn6   2.015083 S    
C47   C66   1.406013 A    
O37   Zn9   1.981719 S    
C233  C234  1.397632 A    
C239  C240  1.394338 A    
O30   C6    1.311166 A    
C169  C174  1.409798 A    
C211  C216  1.402439 A    
C34   C36   1.410495 A    
C126  C134  1.417957 A    
C139  C147  1.405350 A    
C22   C40   1.407893 A    
O18   C10   1.315589 A    
C38   C40   1.410500 A    
O40   Zn9   1.997356 S    
C196  C197  1.397001 A    
C182  H49   1.083062 S    
O42   C152  1.256004 A    
C215  C216  1.394343 A    
C166  H36   1.074026 S    
C157  C162  1.410987 A    
C52   C74   1.427168 A    
C203  C204  1.387602 A    
C187  C188  1.406165 A    
O2    Zn2   2.011070 S    
C19   C27   1.423539 A    
C237  C238  1.396757 A    
C45   C53   1.437007 A    
C171  H40   1.082387 S    
C109  C156  1.428646 S    
C123  C241  1.499272 S    
C229  C234  1.408212 A    
O6    C6    1.267739 A    
C193  C198  1.409803 A    
O34   Zn12  1.981720 S    
O45   C155  1.255873 A    
C180  H48   1.083108 S    
C181  C186  1.410989 A    
C113  C152  1.428658 S    
C119  C217  1.499269 S    
C83   C91   1.418657 A    
C183  H50   1.082314 S    
C111  C119  1.383893 A    
C109  C117  1.384043 A    
C194  C195  1.398871 A    
O20   C12   1.300565 A    
C29   N4    1.437977 S    
O21   C13   1.304968 A    
O36   Zn11  1.997356 S    
C107  C147  1.408388 A    
C201  H65   1.079047 S    
O24   C16   1.300553 A    
O35   C151  1.233577 A    
C218  C219  1.397715 A    
C213  C214  1.396767 A    
O17   Zn1   2.015083 S    
O43   Zn12  1.995901 S    
C103  H15   1.080834 S    
C225  H85   1.082276 S    
C104  C112  1.412660 A    
C50   C76   1.408333 A    
C51   C68   1.406027 A    
C157  C158  1.408734 A    
O46   Zn10  2.024082 S    
C134  C142  1.420563 A    
C214  H76   1.082166 S    
C116  C149  1.440592 S    
O3    C3    1.245496 A    
C178  H46   1.082473 S    
C51   C73   1.415496 A    
C118  C211  1.486946 S    
O40   C156  1.231570 A    
O28   C4    1.297327 A    
N8    O64   1.301046 A    
C17   C76   1.407039 A    
C87   C169  1.492679 S    
C19   C74   1.404079 A    
C179  H47   1.071555 S    
C79   C143  1.524302 S    
C252  H108  1.077200 S    
C184  H51   1.081583 S    
O29   C5    1.302488 A    
C232  C233  1.397333 A    
C222  H83   1.083190 S    
O7    C7    1.245494 A    
C224  H84   1.083310 S    
C24   C38   1.404205 A    
C102  H14   1.074933 S    
C27   N6    1.441537 S    
C97   N10   1.431640 S    
C34   C44   1.410029 A    
C177  C178  1.395808 A    
C39   C42   1.404253 A    
C106  C146  1.410180 A    
C122  C130  1.371034 A    
C165  H35   1.082710 S    
C17   C35   1.410525 A    
N14   O76   1.302108 A    
C217  C222  1.408417 A    
C22   C71   1.404649 A    
C92   C100  1.421184 A    
C208  H71   1.082049 S    
C189  H55   1.082639 S    
C21   C39   1.410525 A    
C140  C148  1.424791 A    
C162  H33   1.082066 S    
C86   C163  1.485395 S    
O12   Zn7   2.123911 S    
C124  C247  1.488057 S    
C235  C240  1.402437 A    
O13   Zn2   2.104468 S    
C69   H5    1.075302 S    
N10   O68   1.302115 A    
C243  C244  1.397814 A    
N12   O71   1.300793 A    
C51   C59   1.434449 A    
N9    O65   1.301117 A    
C73   H9    1.075300 S    
C188  H54   1.083372 S    
O25   C1    1.302481 A    
C92   C199  1.475183 S    
C232  H91   1.082050 S    
C110  C155  1.440341 S    
C48   C56   1.446607 A    
C206  C207  1.395632 A    
O10   C10   1.262394 A    
C137  H25   1.071316 S    
N11   O69   1.301783 A    
C114  C151  1.440381 S    
N7    O61   1.300241 A    
O14   C14   1.262382 A    
C108  H20   1.070604 S    
C242  H99   1.083157 S    
C85   C93   1.427643 A    
C99   N12   1.433745 S    
C45   C65   1.413730 A    
C213  H75   1.082255 S    
C120  C223  1.488065 S    
C158  C159  1.399164 A    
C119  C127  1.367425 A    
C230  C231  1.395633 A    
C200  C201  1.400566 A    
C108  C148  1.417375 A    
C117  C125  1.364603 A    
O35   Zn12  1.997354 S    
N16   O79   1.300783 A    
C161  C162  1.399105 A    
O10   Zn5   2.104468 S    
C241  C246  1.408417 A    
C120  C128  1.368913 A    
C121  C129  1.364594 A    
C49   C75   1.412473 A    
C25   C27   1.414389 A    
C15   C56   1.455126 S    
C124  C132  1.368920 A    
O15   C15   1.241035 A    
C199  C204  1.404686 A    
C112  C120  1.394861 A    
C59   C64   1.381898 A    
C113  C121  1.384037 A    
C169  C170  1.405315 A    
C56   C61   1.374470 A    
C88   C96   1.421184 A    
C79   C100  1.414623 A    
C31   N2    1.441538 S    
O19   C11   1.305666 A    
C196  H61   1.082717 S    
C163  C168  1.408897 A    
O1    C1    1.262958 A    
C166  C167  1.396057 A    
C45   C71   1.412477 A    
O47   Zn10  1.995901 S    
C11   C60   1.455109 S    
C125  C133  1.407882 A    
C159  C160  1.397241 A    
O3    Zn3   2.012887 S    
O27   Zn8   2.069263 S    
N6    O59   1.300544 A    
C250  C251  1.396838 A    
C60   C63   1.374471 A    
C241  C242  1.404445 A    
C32   N1    1.437668 S    
C238  C239  1.397023 A    
O32   Zn3   2.069263 S    
N4    O55   1.301251 A    
C82   C90   1.426580 A    
O45   Zn9   2.024081 S    
C183  C184  1.397239 A    
C37   C41   1.414432 A    
C131  C139  1.410401 A    
C21   C72   1.407101 A    
O15   Zn4   2.123911 S    
O25   Zn6   2.068405 S    
O22   C14   1.315604 A    
C41   C65   1.423090 A    
C170  H39   1.083186 S    
C247  C252  1.402947 A    
N1    O50   1.301436 A    
C223  C224  1.405672 A    
C43   C67   1.423069 A    
N13   O74   1.302171 A    
C218  H79   1.083158 S    
C53   C61   1.371039 A    
C42   C66   1.416368 A    
C64   H4    1.083958 S    
C137  C145  1.412976 A    
N2    O51   1.300557 A    
C106  H18   1.074913 S    
C209  C210  1.397631 A    
C82   C93   1.433977 A    
C173  H42   1.082424 S    
C72   H8    1.078486 S    
C251  C252  1.395361 A    
C17   C25   1.409295 A    
C211  C212  1.405095 A    
C100  N11   1.439542 S    
C215  H77   1.079089 S    
C214  C215  1.397036 A    
C76   H12   1.078470 S    
C159  H30   1.082313 S    
C111  C154  1.421847 S    
C80   C88   1.439932 A    
C231  H90   1.080712 S    
C81   C89   1.431046 A    
C82   C146  1.551855 S    
C90   C98   1.421855 A    
C176  C177  1.400582 A    
C84   C92   1.439937 A    
C238  H96   1.082157 S    
C101  C141  1.415078 A    
O44   Zn11  1.995902 S    
C103  C143  1.408378 A    
C48   C70   1.427199 A    
C220  H81   1.081425 S    
C35   C44   1.404259 A    
C173  C174  1.398454 A    
C158  H29   1.083060 S    
C249  C250  1.396637 A    
C20   C28   1.413850 A    
C3    C127  1.432957 S    
C164  C165  1.394749 A    
C101  C109  1.418167 A    
C80   C99   1.441995 A    
C220  C221  1.396522 A    
C1    C125  1.443085 S    
C81   C94   1.426170 A    
C246  H103  1.083191 S    
C105  C113  1.418173 A    
C95   N16   1.433740 S    
C26   C28   1.413692 A    
C16   C55   1.464441 S    
C104  C144  1.417374 A    
C117  C205  1.495619 S    
C178  C179  1.394080 A    
O46   C156  1.256005 A    
C217  C218  1.404444 A    
C80   C144  1.563279 S    
C50   C68   1.407754 A    
C233  H92   1.082304 S    
C208  C209  1.397335 A    
O16   C16   1.254148 A    
C226  C227  1.396833 A    
C89   C97   1.427647 A    
C185  C186  1.399105 A    
C87   C95   1.424962 A    
O4    Zn4   2.012887 S    
O18   Zn2   2.015083 S    
C206  H69   1.083256 S    
O5    Zn5   2.011070 S    
N11   O70   1.302171 A    
C86   C94   1.421818 A    
N5    O57   1.300603 A    
C204  H68   1.083101 S    
C176  H44   1.083074 S    
N3    O54   1.300923 A    
O14   Zn1   2.104468 S    
O39   Zn10  1.997354 S    
C243  H100  1.082184 S    
C46   C72   1.408292 A    
C29   C31   1.414410 A    
C46   C54   1.426766 A    
C207  H70   1.080713 S    
C23   C70   1.404132 A    
C18   C26   1.417236 A    
C83   C147  1.524312 S    
N15   O77   1.301783 A    
C96   N15   1.439540 S    
C249  H105  1.082279 S    
C221  C222  1.397138 A    
O11   C11   1.241056 A    
O44   C150  1.250649 A    
C192  H58   1.082812 S    
C237  H95   1.082243 S    
C91   C193  1.492681 S    
C112  C153  1.440579 S    
O32   C8    1.297326 A    
C244  C245  1.396518 A    
C107  C115  1.411605 A    
C191  H57   1.082580 S    
O48   C154  1.250646 A    
C108  C116  1.412650 A    
C22   C30   1.417232 A    
C13   C54   1.469755 S    
C205  C210  1.408216 A    
C98   N9    1.433611 S    
O28   Zn7   2.069263 S    
O26   C2    1.311197 A    
C187  C192  1.408822 A    
O29   Zn2   2.068405 S    
C61   H1    1.085208 S    
C160  H31   1.081576 S    
O41   C151  1.255878 A    
C79   C87   1.418653 A    
O34   C150  1.233375 A    
N6    O60   1.302005 A    
N13   O73   1.301152 A    
C174  H43   1.082803 S    
O38   C154  1.233374 A    
C245  C246  1.397134 A    
C47   C55   1.434442 A    
N5    O58   1.301434 A    
C202  H66   1.082467 S    
O33   Zn11  1.981719 S    
C135  C143  1.405351 A    
C172  C173  1.397018 A    
O19   Zn3   2.045033 S    
C133  C141  1.412953 A    
C224  C225  1.398359 A    
C115  C150  1.421860 S    
C78   C97   1.433922 A    
C139  H27   1.073232 S    
C221  H82   1.082310 S    
C104  H16   1.070605 S    
C223  C228  1.402950 A    
C163  C164  1.406258 A    
C182  C183  1.399164 A    
C5    C129  1.443098 S    
N12   O72   1.302566 A    
C78   C142  1.551720 S    
O26   Zn5   2.068405 S    
C167  C168  1.396298 A    
C52   C60   1.446564 A    
C227  C228  1.395349 A    
C23   C37   1.400668 A    
C21   C29   1.409299 A    
C24   C69   1.401657 A    
C127  C135  1.410390 A    
O36   C152  1.231573 A    
C122  C235  1.486933 S    
C40   C41   1.409726 A    
C123  C131  1.367430 A    
C236  H94   1.083290 S    
C195  C196  1.397341 A    
C49   C67   1.413714 A    
C105  C145  1.415102 A    
O47   C153  1.247348 A    
C81   C145  1.542726 S    
C85   C157  1.496365 S    
C228  H88   1.077197 S    
C77   C98   1.426078 A    
O20   Zn4   2.045033 S    
C202  C203  1.394069 A    
C168  H38   1.082877 S    
O21   Zn5   2.015083 S    
C90   C187  1.485356 S    
C14   C53   1.467838 S    
O1    Zn1   2.011070 S    
C250  H106  1.082368 S    
C58   C64   1.382697 A    
C234  H93   1.083310 S    
C20   C34   1.404197 A    
O31   C7    1.290827 A    
C62   H2    1.083960 S    
N16   O80   1.302559 A    
C24   C32   1.413851 A    
C171  C172  1.397332 A    
O17   C9    1.304959 A    
C84   C95   1.441995 A    
N8    O63   1.301246 A    
C209  H72   1.082301 S    
C70   H6    1.072083 S    
C103  C111  1.411602 A    
C128  C136  1.407059 A    
C83   C96   1.414626 A    
C175  C180  1.404683 A    
C9    C58   1.469693 S    
C30   C32   1.413689 A    
C74   H10   1.072084 S    
C93   N14   1.431633 S    
C77   C141  1.542663 S    
C30   N3    1.438266 S    
C50   C58   1.426751 A    
C207  C208  1.397603 A    
C75   H11   1.077600 S    
C84   C148  1.563267 S    
C78   C86   1.426465 A    
