data_str_m3_o40_o41_f0_fof.sym.50
_audit_creation_date              2012-12-10T16:38:06-0500
_audit_creation_method            fapswitch 2.2
_symmetry_space_group_name_H-M    P1
_symmetry_Int_Tables_number       1
_space_group_crystal_system       triclinic
_cell_length_a                    28.118173
_cell_length_b                    18.645999
_cell_length_c                    16.820289
_cell_angle_alpha                 90.028508
_cell_angle_beta                  61.153539
_cell_angle_gamma                 89.904752
_cell_volume                      7724.44812077

loop_
_atom_site_label
_atom_site_type_symbol
_atom_type_description
_atom_site_fract_x
_atom_site_fract_y
_atom_site_fract_z
_atom_type_partial_charge
C1    C     C_R   0.701031 0.265919 0.677308 0.888875
C2    C     C_R   0.111374 0.500145 0.462462 0.074474
C3    C     C_R   0.179625 0.235379 0.917014 0.071034
C4    C     C_R   0.625097 0.339104 0.045594 -0.153328
C5    C     C_R   0.391807 0.683899 0.945304 -0.157680
C6    C     C_R   0.376087 0.337255 0.953813 -0.165749
C7    C     C_R   0.608810 0.684371 0.054120 -0.159340
C8    C     C_R   0.125086 0.839089 0.045601 -0.152563
C9    C     C_R   0.891814 0.183901 0.945297 -0.157699
C10   C     C_R   0.876082 0.837260 0.953816 -0.165805
C11   C     C_R   0.108816 0.184363 0.054118 -0.159397
C12   C     C_R   0.657437 0.329317 0.086440 -0.164574
C13   C     C_R   0.416208 0.001122 0.448602 0.075213
C14   C     C_R   0.363838 0.703413 0.898957 -0.160194
C15   C     C_R   0.344326 0.326487 0.912102 -0.185071
C16   C     C_R   0.636682 0.704637 0.100359 -0.164252
C17   C     C_R   0.157421 0.829292 0.086453 -0.164013
C18   C     C_R   0.863846 0.203415 0.898948 -0.160151
C19   C     C_R   0.844321 0.826492 0.912106 -0.185055
C20   C     C_R   0.136691 0.204624 0.100354 -0.164322
C21   C     C_R   0.744653 0.193095 0.796029 -0.203145
C22   C     C_R   0.270838 0.824339 0.196399 -0.125464
C23   C     C_R   0.255513 0.193545 0.203653 -0.203151
C24   C     C_R   0.611366 0.000147 0.462484 0.074400
C25   C     C_R   0.730705 0.822467 0.801521 -0.110904
C26   C     C_R   0.244651 0.693091 0.796028 -0.203159
C27   C     C_R   0.770852 0.324352 0.196385 -0.125704
C28   C     C_R   0.755505 0.693556 0.203661 -0.203077
C29   C     C_R   0.230707 0.322464 0.801521 -0.110984
C30   C     C_R   0.780720 0.185867 0.832978 -0.110580
C31   C     C_R   0.239850 0.840297 0.151885 -0.100535
C32   C     C_R   0.219678 0.186512 0.166265 -0.114146
C33   C     C_R   0.762937 0.836946 0.844047 -0.112871
C34   C     C_R   0.280718 0.685864 0.832978 -0.110607
C35   C     C_R   0.113706 0.371549 0.452089 -0.174640
C36   C     C_R   0.739874 0.340325 0.151858 -0.100647
C37   C     C_R   0.719666 0.686528 0.166279 -0.114145
C38   C     C_R   0.262941 0.336941 0.844045 -0.112970
C39   C     C_R   0.071773 0.102959 0.936558 0.904687
C40   C     C_R   0.926177 0.898942 0.064915 0.918060
C41   C     C_R   0.928429 0.103081 0.063285 0.908355
C42   C     C_R   0.073901 0.899000 0.935059 0.917574
C43   C     C_R   0.571772 0.602960 0.936559 0.904654
C44   C     C_R   0.426178 0.398941 0.064915 0.917974
C45   C     C_R   0.428428 0.603081 0.063286 0.908323
C46   C     C_R   0.929366 0.625863 0.402667 -0.177453
C47   C     C_R   0.573903 0.399001 0.935058 0.917564
C48   C     C_R   0.575629 0.128209 0.418229 0.021224
C49   C     C_R   0.456852 0.873216 0.483187 0.011203
C50   C     C_R   0.479483 0.127379 0.402919 0.023202
C51   C     C_R   0.562032 0.869671 0.460458 0.004641
C52   C     C_R   0.075665 0.628204 0.418141 0.021458
C53   C     C_R   0.956833 0.373224 0.483243 0.011196
C54   C     C_R   0.979444 0.627390 0.403052 0.022106
C55   C     C_R   0.062017 0.369673 0.460498 0.004646
C56   C     C_R   0.557830 0.192033 0.394315 -0.105050
C57   C     C_R   0.902852 0.379259 0.503873 -0.166645
C58   C     C_R   0.479173 0.806745 0.490011 -0.108093
C59   C     C_R   0.510522 0.191069 0.384297 -0.077542
C60   C     C_R   0.533320 0.804475 0.474070 -0.105728
C61   C     C_R   0.057859 0.692027 0.394223 -0.104937
C62   C     C_R   0.979152 0.306754 0.490075 -0.108071
C63   C     C_R   0.010474 0.691070 0.384456 -0.076787
C64   C     C_R   0.033299 0.304481 0.474130 -0.105688
C65   C     C_R   0.498018 0.064188 0.425213 0.024064
C66   C     C_R   0.538725 0.935069 0.455589 0.027053
C67   C     C_R   0.546493 0.064324 0.430497 0.029425
C68   C     C_R   0.120890 0.627020 0.433320 -0.196570
C69   C     C_R   0.488173 0.935943 0.459147 0.026720
C70   C     C_R   0.998004 0.564192 0.425269 0.024410
C71   C     C_R   0.038715 0.435072 0.455621 0.027045
C72   C     C_R   0.046502 0.564323 0.430483 0.029365
C73   C     C_R   0.988158 0.435949 0.459196 0.026672
C74   C     C_R   0.967496 0.500555 0.444214 -0.015356
C75   C     C_R   0.066070 0.499896 0.447821 -0.013724
C76   C     C_R   0.467511 0.000549 0.444159 -0.015399
C77   C     C_R   0.566067 0.999897 0.447826 -0.013682
C78   C     C_R   0.884192 0.438673 0.475001 0.049282
C79   C     C_R   0.613717 0.871552 0.452065 -0.174624
C80   C     C_R   0.135466 0.565034 0.465543 0.038838
C81   C     C_R   0.133236 0.434981 0.472063 0.048755
C82   C     C_R   0.895657 0.564731 0.431534 0.043426
C83   C     C_R   0.384204 0.938667 0.474964 0.049342
C84   C     C_R   0.635452 0.065036 0.465577 0.038943
C85   C     C_R   0.633235 0.934983 0.472065 0.048761
C86   C     C_R   0.395667 0.064726 0.431501 0.042833
C87   C     C_R   0.834932 0.437817 0.470868 -0.131539
C88   C     C_R   0.173956 0.564210 0.498604 -0.107190
C89   C     C_R   0.173027 0.436131 0.501669 -0.112832
C90   C     C_R   0.429379 0.125854 0.402614 -0.176785
C91   C     C_R   0.841441 0.564840 0.445813 -0.099311
C92   C     C_R   0.334936 0.937815 0.470860 -0.131562
C93   C     C_R   0.673950 0.064210 0.498624 -0.107194
C94   C     C_R   0.673026 0.936131 0.501673 -0.112810
C95   C     C_R   0.341443 0.064839 0.445813 -0.099147
C96   C     C_R   0.814270 0.500808 0.456962 -0.273482
C97   C     C_R   0.190920 0.500290 0.517581 -0.285868
C98   C     C_R   0.314268 0.000808 0.456974 -0.273407
C99   C     C_R   0.690916 0.000290 0.517593 -0.285887
C100  C     C_2   0.058246 0.234679 0.476859 0.927510
C101  C     C_R   0.402869 0.879251 0.503828 -0.166661
C102  C     C_2   0.993993 0.756310 0.353362 0.904029
C103  C     C_2   0.946554 0.239663 0.511650 0.929382
C104  C     C_2   0.087997 0.760000 0.381448 0.906072
C105  C     C_2   0.558271 0.734673 0.476790 0.927556
C106  C     C_2   0.494191 0.256214 0.352729 0.901532
C107  C     C_2   0.446578 0.739651 0.511575 0.929399
C108  C     C_2   0.588002 0.259943 0.381618 0.907439
C109  C     C_2   0.734860 0.129312 0.751872 1.006923
C110  C     C_2   0.278587 0.879760 0.253368 0.970323
C111  C     C_2   0.264989 0.129757 0.248196 1.003222
C112  C     C_R   0.299806 0.735097 0.322724 0.893238
C113  C     C_R   0.620868 0.127024 0.433373 -0.196469
C114  C     C_2   0.722593 0.878787 0.745745 0.979390
C115  C     C_2   0.234863 0.629310 0.751863 1.006939
C116  C     C_2   0.778597 0.379761 0.253365 0.970334
C117  C     C_2   0.764984 0.629763 0.248194 1.003078
C118  C     C_2   0.222592 0.378785 0.745750 0.979453
C119  C     C_2   0.817867 0.122998 0.806739 0.910709
C120  C     C_2   0.212487 0.910478 0.168217 0.916713
C121  C     C_2   0.182899 0.123637 0.191271 0.904446
C122  C     C_2   0.792383 0.905482 0.824312 0.929414
C123  C     C_2   0.317871 0.623002 0.806728 0.910687
C124  C     C_R   0.726271 0.272302 0.950643 0.025594
C125  C     C_2   0.712501 0.410499 0.168210 0.916673
C126  C     C_2   0.682879 0.623662 0.191302 0.904322
C127  C     C_2   0.292387 0.405477 0.824311 0.929468
C128  C     C_R   0.291739 0.753428 0.035388 0.025787
C129  C     C_R   0.274535 0.271952 0.048412 0.029698
C130  C     C_R   0.709221 0.752977 0.963325 0.029639
C131  C     C_R   0.226260 0.772287 0.950654 0.025699
C132  C     C_R   0.791753 0.253445 0.035373 0.025673
C133  C     C_R   0.774528 0.771961 0.048418 0.029680
C134  C     C_R   0.209226 0.252969 0.963321 0.029651
C135  C     C_R   0.774338 0.230709 0.906663 -0.018955
C136  C     C_R   0.298896 0.266091 0.322735 0.858036
C137  C     C_R   0.245465 0.797377 0.077420 -0.009483
C138  C     C_R   0.226245 0.231200 0.092537 -0.021707
C139  C     C_R   0.756259 0.795452 0.920248 -0.041740
C140  C     C_R   0.274330 0.730699 0.906671 -0.018912
C141  C     C_R   0.745484 0.297402 0.077398 -0.009345
C142  C     C_R   0.726237 0.731212 0.092546 -0.021703
C143  C     C_R   0.256264 0.295445 0.920244 -0.041745
C144  C     C_R   0.809617 0.227596 0.946334 0.090285
C145  C     C_R   0.210584 0.802515 0.037532 0.075282
C146  C     C_R   0.191031 0.228196 0.052779 0.094955
C147  C     C_R   0.700312 0.734843 0.677156 0.906343
C148  C     C_R   0.790878 0.800789 0.960740 0.083446
C149  C     C_R   0.309607 0.727586 0.946345 0.090304
C150  C     C_R   0.710600 0.302538 0.037516 0.075781
C151  C     C_R   0.691023 0.728207 0.052785 0.094942
C152  C     C_R   0.290883 0.300782 0.960735 0.083435
C153  C     C_R   0.644515 0.323594 0.952738 0.083362
C154  C     C_R   0.367672 0.692182 0.040255 0.086301
C155  C     C_R   0.356054 0.322972 0.046990 0.086580
C156  C     C_R   0.632901 0.692070 0.959184 0.089488
C157  C     C_R   0.144507 0.823584 0.952743 0.083008
C158  C     C_R   0.201030 0.765919 0.677308 0.888911
C159  C     C_R   0.867680 0.192188 0.040248 0.086296
C160  C     C_R   0.856050 0.822978 0.046993 0.086591
C161  C     C_R   0.132905 0.192065 0.959183 0.089500
C162  C     C_R   0.616529 0.343989 0.903433 -0.131296
C163  C     C_R   0.389372 0.662048 0.094266 -0.138903
C164  C     C_R   0.383660 0.343891 0.096633 -0.135372
C165  C     C_R   0.611003 0.661805 0.905448 -0.138506
C166  C     C_R   0.116525 0.843985 0.903434 -0.131276
C167  C     C_R   0.889376 0.162052 0.094263 -0.138916
C168  C     C_R   0.883657 0.843895 0.096634 -0.135356
C169  C     C_R   0.799808 0.235101 0.322722 0.892975
C170  C     C_R   0.111005 0.161804 0.905447 -0.138508
C171  C     C_R   0.633834 0.318503 0.817183 -0.286493
C172  C     C_R   0.368463 0.681718 0.183904 -0.276621
C173  C     C_R   0.366073 0.318827 0.183121 -0.280401
C174  C     C_R   0.631769 0.681465 0.815877 -0.272463
C175  C     C_R   0.133833 0.818502 0.817183 -0.286485
C176  C     C_R   0.868467 0.181723 0.183901 -0.276558
C177  C     C_R   0.866070 0.818831 0.183123 -0.280660
C178  C     C_R   0.131769 0.181464 0.815877 -0.272499
C179  C     C_R   0.678545 0.274390 0.775794 -0.093238
C180  C     C_R   0.798895 0.766092 0.322735 0.857687
C181  C     C_R   0.326053 0.729893 0.223376 -0.066182
C182  C     C_R   0.321443 0.274671 0.224289 -0.083672
C183  C     C_R   0.674200 0.729448 0.776311 -0.071892
C184  C     C_R   0.178543 0.774387 0.775794 -0.093243
C185  C     C_R   0.826058 0.229901 0.223372 -0.066329
C186  C     C_R   0.821440 0.774676 0.224291 -0.083774
C187  C     C_R   0.174201 0.229447 0.776311 -0.071897
C188  C     C_R   0.706524 0.250744 0.824414 0.022168
C189  C     C_R   0.304520 0.762544 0.169915 0.018487
C190  C     C_R   0.293665 0.250972 0.175424 0.019689
C191  C     C_R   0.200312 0.234842 0.677156 0.906493
C192  C     C_R   0.696125 0.761732 0.829240 -0.002554
C193  C     C_R   0.206519 0.750738 0.824417 0.022198
C194  C     C_R   0.804530 0.262556 0.169905 0.018412
C195  C     C_R   0.793659 0.750980 0.175428 0.019774
C196  C     C_R   0.196127 0.261729 0.829239 -0.002553
C197  C     C_R   0.697289 0.128414 0.514398 0.913048
C198  C     C_R   0.305049 0.872200 0.477982 0.898321
C199  C     C_R   0.308773 0.129745 0.464024 0.895599
C200  C     C_R   0.696311 0.871744 0.517380 0.899612
C201  C     C_R   0.197294 0.628415 0.514385 0.913073
C202  C     C_R   0.916193 0.501129 0.448652 0.075102
C203  C     C_R   0.805048 0.372201 0.477983 0.898243
C204  C     C_R   0.808773 0.629745 0.464023 0.895415
C205  C     C_R   0.196311 0.371744 0.517381 0.899748
C206  C     C_R   0.692895 0.282863 0.908675 0.076021
C207  C     C_R   0.321087 0.735810 0.082112 0.069759
C208  C     C_R   0.307599 0.282682 0.090906 0.073743
C209  C     C_R   0.679621 0.735385 0.917016 0.071036
C210  C     C_R   0.192888 0.782852 0.908682 0.076035
C211  C     C_R   0.821098 0.235822 0.082100 0.069870
C212  C     C_R   0.807594 0.782689 0.090911 0.073731
H1    H     H_    0.774852 0.500535 0.460057 0.225755
H2    H     H_    0.416684 0.172525 0.379852 0.184210
H3    H     H_    0.375586 0.838618 0.547049 0.182219
H4    H     H_    0.645330 0.174145 0.416942 0.209854
H5    H     H_    0.613537 0.336296 0.779789 0.192843
H6    H     H_    0.383941 0.656380 0.224867 0.198360
H7    H     H_    0.386155 0.336853 0.220742 0.191381
H8    H     H_    0.616167 0.656287 0.775025 0.196041
H9    H     H_    0.113537 0.836298 0.779787 0.192810
H10   H     H_    0.883943 0.156382 0.224866 0.198356
H11   H     H_    0.886153 0.836855 0.220743 0.191537
H12   H     H_    0.219417 0.500400 0.543815 0.219947
H13   H     H_    0.116165 0.156289 0.775026 0.196033
H14   H     H_    0.583895 0.355495 0.090453 0.184240
H15   H     H_    0.432781 0.664225 0.905116 0.171119
H16   H     H_    0.417426 0.353190 0.909473 0.178489
H17   H     H_    0.567912 0.664690 0.094351 0.171816
H18   H     H_    0.083885 0.855483 0.090455 0.184500
H19   H     H_    0.932787 0.164222 0.905110 0.171122
H20   H     H_    0.917422 0.853194 0.909476 0.178479
H21   H     H_    0.067918 0.164682 0.094351 0.171816
H22   H     H_    0.639113 0.339967 0.158379 0.184992
H23   H     H_    0.274844 0.000537 0.460093 0.225700
H24   H     H_    0.384850 0.698062 0.825901 0.171630
H25   H     H_    0.363362 0.335568 0.839838 0.170395
H26   H     H_    0.615655 0.699893 0.173475 0.168857
H27   H     H_    0.139092 0.839931 0.158395 0.185250
H28   H     H_    0.884856 0.198056 0.825893 0.171642
H29   H     H_    0.863357 0.835572 0.839842 0.170430
H30   H     H_    0.115665 0.199875 0.173470 0.168841
H31   H     H_    0.096028 0.175928 0.530621 0.339990
H32   H     H_    0.986901 0.805023 0.252570 0.335838
H33   H     H_    0.898957 0.175273 0.483556 0.340231
H34   H     H_    0.719415 0.000399 0.543822 0.219949
H35   H     H_    0.160699 0.807459 0.326337 0.379551
H36   H     H_    0.596056 0.675918 0.530542 0.340000
H37   H     H_    0.485719 0.303724 0.252576 0.336056
H38   H     H_    0.398970 0.675275 0.483489 0.340239
H39   H     H_    0.660732 0.307323 0.326090 0.379420
H40   H     H_    0.807290 0.134492 0.637121 0.334099
H41   H     H_    0.331164 0.931139 0.283162 0.356670
H42   H     H_    0.192095 0.135274 0.362035 0.335842
H43   H     H_    0.669771 0.930738 0.716787 0.352767
H44   H     H_    0.307295 0.634497 0.637116 0.334100
H45   H     H_    0.137474 0.323341 0.429323 0.190002
H46   H     H_    0.831182 0.431202 0.283085 0.356634
H47   H     H_    0.692094 0.635278 0.362043 0.335855
H48   H     H_    0.169767 0.430733 0.716795 0.352774
H49   H     H_    0.849943 0.045552 0.850151 0.348826
H50   H     H_    0.151723 0.974886 0.255529 0.380443
H51   H     H_    0.151319 0.047338 0.145291 0.345659
H52   H     H_    0.854514 0.965994 0.734204 0.371594
H53   H     H_    0.349951 0.545553 0.850128 0.348826
H54   H     H_    0.651768 0.474918 0.255581 0.380466
H55   H     H_    0.651301 0.547336 0.145351 0.345757
H56   H     H_    0.916716 0.672524 0.379796 0.182632
H57   H     H_    0.354516 0.465990 0.734200 0.371594
H58   H     H_    0.875567 0.338622 0.547083 0.182227
H59   H     H_    0.145331 0.674145 0.416954 0.210383
H60   H     H_    0.637493 0.823350 0.429291 0.189997
O1    O     O_R   0.746490 0.236330 0.638080 -0.657918
O2    O     O_R   0.325830 0.813840 0.483730 -0.611730
O3    O     O_R   0.325830 0.186160 0.483730 -0.634135
O4    O     O_R   0.674170 0.813840 0.516270 -0.612915
O5    O     O_R   0.174170 0.686160 0.516270 -0.647027
O6    O     O_R   0.825830 0.313840 0.483730 -0.611757
O7    O     O_R   0.825830 0.686160 0.483730 -0.633482
O8    O     O_R   0.174170 0.313840 0.516270 -0.612902
O9    O     O_R   0.739960 0.127620 0.525000 -0.591416
O10   O     O_R   0.260040 0.872380 0.475000 -0.603028
O11   O     O_R   0.260040 0.127620 0.475000 -0.594057
O12   O     O_R   0.253510 0.763670 0.361920 -0.638897
O13   O     O_R   0.739960 0.872380 0.525000 -0.601900
O14   O     O_R   0.239960 0.627620 0.525000 -0.591402
O15   O     O_R   0.760040 0.372380 0.475000 -0.602922
O16   O     O_R   0.760040 0.627620 0.475000 -0.594137
O17   O     O_R   0.239960 0.372380 0.525000 -0.601931
O18   O     O_R   0.680700 0.294870 0.629350 -0.613443
O19   O     O_R   0.319300 0.705130 0.370650 -0.613715
O20   O     O_R   0.319300 0.294870 0.370650 -0.621220
O21   O     O_R   0.680700 0.705130 0.629350 -0.611871
O22   O     O_R   0.180700 0.794870 0.629350 -0.613520
O23   O     O_R   0.253510 0.236330 0.361920 -0.665444
O24   O     O_R   0.819300 0.205130 0.370650 -0.613687
O25   O     O_R   0.819300 0.794870 0.370650 -0.621109
O26   O     O_R   0.180700 0.205130 0.629350 -0.611842
O27   O     O_R   0.062020 0.072840 0.007170 -0.622213
O28   O     O_R   0.937980 0.927160 0.992830 -0.628476
O29   O     O_R   0.937980 0.072840 0.992830 -0.622023
O30   O     O_R   0.062020 0.927160 0.007170 -0.631473
O31   O     O_R   0.562020 0.572840 0.007170 -0.622181
O32   O     O_R   0.437980 0.427160 0.992830 -0.628465
O33   O     O_R   0.437980 0.572840 0.992830 -0.622031
O34   O     O_R   0.746490 0.763670 0.638080 -0.618836
O35   O     O_R   0.562020 0.427160 0.007170 -0.631370
O36   O     O_R   0.947860 0.073950 0.109290 -0.617476
O37   O     O_R   0.052140 0.926050 0.890710 -0.613713
O38   O     O_R   0.052140 0.073950 0.890710 -0.618644
O39   O     O_R   0.947860 0.926050 0.109290 -0.615418
O40   O     O_R   0.447860 0.573950 0.109290 -0.617461
O41   O     O_R   0.552140 0.426050 0.890710 -0.613712
O42   O     O_R   0.552140 0.573950 0.890710 -0.618648
O43   O     O_R   0.447860 0.426050 0.109290 -0.615439
O44   O     O_2   0.058903 0.185032 0.428830 -0.563813
O45   O     O_R   0.246490 0.736330 0.638080 -0.657904
O46   O     O_R   0.080044 0.225536 0.535364 -0.773198
O47   O     O_2   0.974333 0.807427 0.404578 -0.558819
O48   O     O_R   0.999924 0.758132 0.265970 -0.809230
O49   O     O_2   0.942997 0.200330 0.572434 -0.574695
O50   O     O_R   0.920089 0.221710 0.462206 -0.771783
O51   O     O_2   0.065280 0.812072 0.429001 -0.541121
O52   O     O_R   0.142942 0.763325 0.317500 -0.816905
O53   O     O_2   0.558928 0.685030 0.428757 -0.563709
O54   O     O_R   0.580069 0.725526 0.535294 -0.773201
O55   O     O_2   0.476048 0.308336 0.402648 -0.558360
O56   O     O_R   0.753510 0.263670 0.361920 -0.638976
O57   O     O_R   0.498486 0.256807 0.266412 -0.809160
O58   O     O_2   0.443032 0.700303 0.572339 -0.574644
O59   O     O_R   0.420101 0.721714 0.462145 -0.771769
O60   O     O_2   0.565470 0.311793 0.429797 -0.539923
O61   O     O_R   0.642848 0.263346 0.317202 -0.817350
O62   O     O_2   0.690391 0.100539 0.788978 -0.565671
O63   O     O_R   0.774780 0.101758 0.668944 -0.705343
O64   O     O_2   0.239951 0.913228 0.311229 -0.550609
O65   O     O_R   0.330694 0.892442 0.241206 -0.792794
O66   O     O_2   0.309526 0.100888 0.211903 -0.569963
O67   O     O_R   0.753510 0.736330 0.361920 -0.665436
O68   O     O_R   0.224670 0.102376 0.330702 -0.706597
O69   O     O_2   0.761084 0.912282 0.687951 -0.538783
O70   O     O_R   0.670352 0.892054 0.758660 -0.795864
O71   O     O_2   0.190395 0.600534 0.788962 -0.565690
O72   O     O_R   0.274786 0.601760 0.668935 -0.705356
O73   O     O_2   0.739946 0.413130 0.311343 -0.550420
O74   O     O_R   0.830718 0.392534 0.241092 -0.792748
O75   O     O_2   0.809520 0.600893 0.211892 -0.570129
O76   O     O_R   0.724668 0.602378 0.330700 -0.706634
O77   O     O_2   0.261081 0.412289 0.687963 -0.538919
O78   O     O_R   0.246490 0.263670 0.638080 -0.618974
O79   O     O_R   0.170351 0.392045 0.758660 -0.795857
O80   O     O_2   0.851275 0.112670 0.727347 -0.608856
O81   O     O_R   0.817691 0.079390 0.874395 -0.732326
O82   O     O_2   0.229260 0.954397 0.106938 -0.570153
O83   O     O_R   0.167424 0.925564 0.252288 -0.755280
O84   O     O_2   0.148972 0.113281 0.270263 -0.607258
O85   O     O_R   0.183807 0.080454 0.122613 -0.734901
O86   O     O_2   0.776932 0.951281 0.883418 -0.573908
O87   O     O_R   0.837721 0.917070 0.739431 -0.744810
O88   O     O_2   0.351284 0.612689 0.727336 -0.608866
O89   O     O_R   0.674170 0.186160 0.516270 -0.646936
O90   O     O_R   0.317695 0.579384 0.874376 -0.732306
O91   O     O_2   0.729203 0.454379 0.106890 -0.570195
O92   O     O_R   0.667493 0.425612 0.252337 -0.755030
O93   O     O_2   0.648951 0.613319 0.270297 -0.607176
O94   O     O_R   0.683782 0.580467 0.122657 -0.734884
O95   O     O_2   0.276939 0.451273 0.883420 -0.573869
O96   O     O_R   0.337723 0.417066 0.739428 -0.745058
Zn1   Zn    Zn3+2 0.792340 0.208750 0.507670 1.021860
Zn2   Zn    Zn3+2 0.494040 0.500000 0.919480 0.977514
Zn3   Zn    Zn3+2 0.005960 0.000000 0.080520 0.978128
Zn4   Zn    Zn3+2 0.994040 0.000000 0.919480 0.977448
Zn5   Zn    Zn3+2 0.207660 0.791250 0.492330 1.049910
Zn6   Zn    Zn3+2 0.207660 0.208750 0.492330 1.015315
Zn7   Zn    Zn3+2 0.792340 0.791250 0.507670 1.085636
Zn8   Zn    Zn3+2 0.292340 0.708750 0.507670 1.021857
Zn9   Zn    Zn3+2 0.707660 0.291250 0.492330 1.050334
Zn10  Zn    Zn3+2 0.707660 0.708750 0.492330 1.015331
Zn11  Zn    Zn3+2 0.292340 0.291250 0.507670 1.084389
Zn12  Zn    Zn3+2 0.505960 0.500000 0.080520 0.978439

loop_
_geom_bond_atom_site_label_1
_geom_bond_atom_site_label_2
_ccdc_geom_bond_type
C132  C144  A    
C47   O41   A    
C35   H45   S    
C45   O33   A    
C170  C178  A    
C50   C59   A    
C104  O51   D    
C52   C61   A    
C63   C102  S    
C54   C63   A    
C58   C60   A    
C184  C193  A    
C28   C195  A    
C159  C211  A    
C158  O45   A    
C61   C63   A    
C62   C64   A    
C131  C140  A    
C134  C143  A    
C50   C90   A    
C89   C205  S    
C162  C171  A    
C70   C74   A    
C4    C12   A    
C24   C85   A    
C114  O70   S    
C88   C97   A    
O78   Zn11  S    
C4    C153  A    
C116  O73   D    
C49   C69   A    
O35   Zn12  S    
C191  O78   A    
C8    C157  A    
C57   C78   A    
C134  C146  A    
C11   C20   A    
C59   C106  S    
C37   C142  A    
C12   C150  A    
C40   O28   A    
O20   Zn11  S    
C119  O81   S    
C129  C152  A    
C86   C90   A    
C109  O63   S    
O26   Zn6   S    
C179  C188  A    
C82   C91   A    
C108  O61   S    
C51   C66   A    
H38   O59   S    
C52   C72   A    
O9    Zn1   S    
C186  C195  A    
C54   C70   A    
C131  C210  A    
C10   H20   S    
O89   Zn9   S    
C164  C173  A    
C99   H34   S    
C163  C172  A    
C17   H27   S    
H44   O72   S    
C115  O72   S    
C20   C146  A    
C121  O85   S    
C10   C160  A    
C90   H2    S    
C172  H6    S    
O11   Zn6   S    
C203  O15   A    
C66   C77   A    
C204  O16   A    
C124  C135  A    
C156  C209  A    
C32   C121  S    
C79   H60   S    
C25   C192  A    
H36   O54   S    
O41   Zn2   S    
C15   H25   S    
C8    C17   A    
C56   C59   A    
H50   O83   S    
C165  C174  A    
H37   O57   S    
C80   C88   A    
C25   C114  S    
O7    Zn7   S    
C101  H3    S    
C14   C149  A    
C34   C140  A    
C159  C167  A    
C16   C151  A    
C84   C93   A    
C160  C168  A    
C48   C67   A    
C45   C163  S    
H52   O87   S    
C31   C120  S    
C86   C95   A    
C19   H29   S    
C24   C77   A    
C2    C81   A    
C47   O35   A    
C182  C190  A    
C118  O79   S    
C197  O9    A    
C2    C75   A    
C5    C154  A    
C78   C87   A    
C11   H21   S    
C199  O3    A    
C38   C143  A    
C67   C77   A    
C127  O96   S    
C125  O92   S    
C106  O57   S    
O13   Zn7   S    
C133  C142  A    
C176  H10   S    
C57   H58   S    
C33   C139  A    
H57   O96   S    
O12   Zn5   S    
C203  O6    A    
C69   C76   A    
C58   C107  S    
C112  O12   A    
C82   C202  A    
C56   C108  S    
C110  O64   D    
O27   Zn3   S    
C46   C82   A    
C126  O93   D    
C172  C181  A    
O6    Zn1   S    
C7    C156  A    
O38   Zn4   S    
C180  O25   A    
H33   O50   S    
C91   C204  S    
O37   Zn4   S    
C102  O47   D    
C91   C96   A    
C16   H26   S    
C55   C64   A    
C205  O17   A    
C120  O83   S    
C171  C179  A    
C132  C211  A    
C72   C75   A    
C92   C198  S    
C18   H28   S    
C141  C150  A    
C139  C148  A    
O34   Zn7   S    
O15   Zn9   S    
C117  O76   S    
C129  C208  A    
C191  O26   A    
C204  O7    A    
C65   C67   A    
H53   O90   S    
C200  O13   A    
C5    H15   S    
C93   C197  S    
C32   C138  A    
C175  H9    S    
C108  O60   D    
C27   C194  A    
C118  O77   D    
C180  C186  S    
O18   Zn9   S    
C33   C122  S    
C31   C137  A    
C169  O24   A    
O2    Zn8   S    
C21   C188  A    
O32   Zn2   S    
C37   C126  S    
C132  C141  A    
C119  O80   D    
C83   C101  A    
C43   O42   A    
C6    C155  A    
C45   O40   A    
C180  O67   A    
C21   C109  S    
C112  C181  S    
O23   Zn6   S    
C23   C111  S    
C29   C118  S    
C41   O36   A    
O8    Zn6   S    
C3    C134  A    
C104  O52   S    
C195  C212  A    
C193  C210  A    
O14   Zn8   S    
C28   C37   A    
C138  C146  A    
C105  O54   S    
C131  C145  A    
C50   C65   A    
C51   C79   A    
C9    C18   A    
C46   H56   S    
C136  C182  S    
O17   Zn11  S    
C112  O19   A    
C111  O68   S    
C175  C184  A    
C130  C209  A    
C39   O27   A    
C51   C60   A    
C113  H4    S    
C140  C149  A    
C23   C190  A    
C25   C33   A    
C122  O87   S    
C103  O50   S    
C187  C196  A    
C73   C74   A    
O10   Zn5   S    
C185  C194  A    
C183  C192  A    
C176  C185  A    
C19   C148  A    
C20   H30   S    
C147  O34   A    
C188  C206  A    
C166  C175  A    
C34   C123  S    
C65   C76   A    
O30   Zn3   S    
C137  C145  A    
H35   O52   S    
H40   O63   S    
C49   C101  A    
C109  O62   D    
C168  C177  A    
C11   C161  A    
C107  O58   D    
H46   O74   S    
C26   C115  S    
C178  H13   S    
C201  O5    A    
C198  O10   A    
O22   Zn5   S    
C181  C189  A    
C22   C110  S    
C6    H16   S    
H43   O70   S    
C4    H14   S    
C93   C99   A    
O4    Zn10  S    
C81   C89   A    
C115  O71   D    
C121  O84   D    
C130  C139  A    
C87   C203  S    
C15   C152  A    
C100  O44   D    
C43   C165  S    
C116  O74   S    
C120  O82   D    
C177  C186  A    
C68   H59   S    
C155  C208  A    
C136  O20   A    
C53   C57   A    
C74   C202  A    
C43   O31   A    
C96   H1    S    
C44   O32   A    
H47   O76   S    
C17   C145  A    
C36   C141  A    
O24   Zn1   S    
C10   C19   A    
C199  O11   A    
C46   C54   A    
C111  O66   D    
C177  H11   S    
C22   C189  A    
C114  O69   D    
C5    C14   A    
C171  H5    S    
C178  C187  A    
C7    C16   A    
H49   O81   S    
C42   O37   A    
C122  O86   D    
C44   O43   A    
C29   C196  A    
C71   C73   A    
C7    H17   S    
O36   Zn3   S    
O43   Zn12  S    
C124  C150  A    
H41   O65   S    
H31   O46   S    
C174  C183  A    
C127  O95   D    
C125  O91   D    
C27   C36   A    
C21   C30   A    
C13   C83   A    
C3    C196  A    
C97   H12   S    
C153  C162  A    
C23   C32   A    
C18   C144  A    
C156  C165  A    
C189  C207  A    
C79   C85   A    
C1    O18   A    
C94   C200  S    
O67   Zn10  S    
C24   C84   A    
C192  C209  A    
C110  O65   S    
C3    C161  A    
C126  O94   S    
C128  C149  A    
C64   C100  S    
O28   Zn4   S    
C30   C135  A    
H51   O85   S    
C130  C151  A    
C44   C164  S    
C26   C193  A    
C158  C184  S    
C201  O14   A    
C100  O46   S    
C123  O88   D    
C42   C166  S    
C48   C113  A    
C68   C80   A    
C102  O48   S    
C84   C113  A    
O56   Zn9   S    
H54   O92   S    
C36   C125  S    
C40   O39   A    
C14   H24   S    
C38   C127  S    
C35   C81   A    
C95   C98   A    
O1    Zn1   S    
C12   H22   S    
C83   C92   A    
O3    Zn11  S    
O40   Zn12  S    
C117  O75   D    
C39   C170  S    
C28   C117  S    
C66   C69   A    
C30   C119  S    
C9    C159  A    
C6    C15   A    
C8    H18   S    
C26   C34   A    
C129  C138  A    
C106  O55   D    
C13   C86   A    
O5    Zn5   S    
C55   C71   A    
C128  C207  A    
C88   C201  S    
C123  O90   S    
C1    O1    A    
C52   C68   A    
C61   C104  S    
C27   C116  S    
O33   Zn2   S    
C194  C211  A    
C157  C210  A    
H55   O94   S    
C47   C162  S    
O19   Zn8   S    
C160  C212  A    
C22   C31   A    
C98   H23   S    
C35   C55   A    
O16   Zn10  S    
C154  C163  A    
C158  O22   A    
C41   O29   A    
C147  O21   A    
C200  O4    A    
C49   C58   A    
C153  C206  A    
C89   C97   A    
C29   C38   A    
C92   C98   A    
C128  C137  A    
C136  O23   A    
H48   O79   S    
C85   C94   A    
C13   C76   A    
C87   C96   A    
C105  O53   D    
C133  C148  A    
O25   Zn7   S    
C107  O59   S    
C161  C170  A    
C190  C208  A    
C135  C144  A    
C39   O38   A    
H39   O61   S    
C62   C103  S    
C42   O30   A    
C147  C183  S    
C48   C56   A    
C197  O89   A    
C143  C152  A    
C103  O49   D    
C124  C206  A    
C187  C191  S    
C53   C73   A    
C78   C202  A    
C157  C166  A    
C173  C182  A    
C198  O2    A    
C155  C164  A    
C142  C151  A    
C9    H19   S    
H32   O48   S    
C169  C185  S    
H42   O68   S    
C71   C75   A    
C1    C179  S    
O29   Zn4   S    
O31   Zn12  S    
O39   Zn3   S    
C94   C99   A    
C169  O56   A    
C41   C167  S    
C205  O8    A    
C173  H7    S    
C40   C168  S    
C2    C80   A    
O21   Zn10  S    
C174  H8    S    
C53   C62   A    
C95   C199  S    
O42   Zn2   S    
C133  C212  A    
C70   C72   A    
C154  C207  A    
C60   C105  S    
C167  C176  A    
O45   Zn8   S    
